@<TRIPOS>MOLECULE
RES
358 365 1 0 1
SMALL
NO_CHARGES
@<TRIPOS>CRYSIN
   36.3877    13.0021    47.8000    90.0000    90.0000    90.0000 1 1
@<TRIPOS>ATOM
       1 O           67.8110    12.8500    10.0000 O             1 RES     
       2 H           67.8110    13.8500    10.0000 H             1 RES     
       3 C           67.8110    11.4000    10.0000 C             1 RES     
       4 H           66.7210    11.4000    10.0000 H             1 RES     
       5 C           67.8110    11.4000    11.4000 C             1 RES     
       6 H           68.9010    11.4000    11.4000 H             1 RES     
       7 H           67.8110    10.0000    11.4000 H             1 RES     
       8 O           65.1950    12.8500    11.4000 O             1 RES     
       9 C           65.1950    11.4000    11.4000 C             1 RES     
      10 H           64.1050    11.4000    11.4000 H             1 RES     
      11 C           65.1950    11.4000    12.8000 C             1 RES     
      12 H           66.2850    11.4000    12.8000 H             1 RES     
      13 H           65.1950    10.0000    12.8000 H             1 RES     
      14 O           62.5790    12.8500    12.8000 O             1 RES     
      15 C           62.5790    11.4000    12.8000 C             1 RES     
      16 H           61.4890    11.4000    12.8000 H             1 RES     
      17 C           62.5790    11.4000    14.2000 C             1 RES     
      18 H           63.6690    11.4000    14.2000 H             1 RES     
      19 H           62.5790    10.0000    14.2000 H             1 RES     
      20 O           59.9630    12.8500    14.2000 O             1 RES     
      21 C           59.9630    11.4000    14.2000 C             1 RES     
      22 H           58.8730    11.4000    14.2000 H             1 RES     
      23 C           59.9630    11.4000    15.6000 C             1 RES     
      24 H           61.0530    11.4000    15.6000 H             1 RES     
      25 H           59.9630    10.0000    15.6000 H             1 RES     
      26 O           57.3470    12.8500    15.6000 O             1 RES     
      27 H           57.3470    13.8500    15.6000 H             1 RES     
      28 C           57.3470    11.4000    15.6000 C             1 RES     
      29 H           56.2570    11.4000    15.6000 H             1 RES     
      30 C           57.3470    11.4000    17.0000 C             1 RES     
      31 H           58.4370    11.4000    17.0000 H             1 RES     
      32 H           57.3470    10.0000    17.0000 H             1 RES     
      33 O           54.7310    12.8500    17.0000 O             1 RES     
      34 H           54.7310    13.8500    17.0000 H             1 RES     
      35 C           54.7310    11.4000    17.0000 C             1 RES     
      36 H           53.6410    11.4000    17.0000 H             1 RES     
      37 C           54.7310    11.4000    18.4000 C             1 RES     
      38 H           55.8210    11.4000    18.4000 H             1 RES     
      39 H           54.7310    10.0000    18.4000 H             1 RES     
      40 O           52.1150    12.8500    18.4000 O             1 RES     
      41 C           52.1150    11.4000    18.4000 C             1 RES     
      42 H           51.0250    11.4000    18.4000 H             1 RES     
      43 C           52.1150    11.4000    19.8000 C             1 RES     
      44 H           53.2050    11.4000    19.8000 H             1 RES     
      45 H           52.1150    10.0000    19.8000 H             1 RES     
      46 O           49.4990    12.8500    19.8000 O             1 RES     
      47 H           49.4990    13.8500    19.8000 H             1 RES     
      48 C           49.4990    11.4000    19.8000 C             1 RES     
      49 H           48.4090    11.4000    19.8000 H             1 RES     
      50 C           49.4990    11.4000    21.2000 C             1 RES     
      51 H           50.5890    11.4000    21.2000 H             1 RES     
      52 H           49.4990    10.0000    21.2000 H             1 RES     
      53 O           46.8830    12.8500    21.2000 O             1 RES     
      54 H           46.8830    13.8500    21.2000 H             1 RES     
      55 C           46.8830    11.4000    21.2000 C             1 RES     
      56 H           45.7930    11.4000    21.2000 H             1 RES     
      57 C           46.8830    11.4000    22.6000 C             1 RES     
      58 H           47.9730    11.4000    22.6000 H             1 RES     
      59 H           46.8830    10.0000    22.6000 H             1 RES     
      60 O           44.2670    12.8500    22.6000 O             1 RES     
      61 H           44.2670    13.8500    22.6000 H             1 RES     
      62 C           44.2670    11.4000    22.6000 C             1 RES     
      63 H           43.1770    11.4000    22.6000 H             1 RES     
      64 C           44.2670    11.4000    24.0000 C             1 RES     
      65 H           45.3570    11.4000    24.0000 H             1 RES     
      66 H           44.2670    10.0000    24.0000 H             1 RES     
      67 O           41.6510    12.8500    24.0000 O             1 RES     
      68 H           41.6510    13.8500    24.0000 H             1 RES     
      69 C           41.6510    11.4000    24.0000 C             1 RES     
      70 H           40.5610    11.4000    24.0000 H             1 RES     
      71 C           41.6510    11.4000    25.4000 C             1 RES     
      72 H           42.7410    11.4000    25.4000 H             1 RES     
      73 H           41.6510    10.0000    25.4000 H             1 RES     
      74 O           39.0350    12.8500    25.4000 O             1 RES     
      75 C           39.0350    11.4000    25.4000 C             1 RES     
      76 H           37.9450    11.4000    25.4000 H             1 RES     
      77 C           39.0350    11.4000    26.8000 C             1 RES     
      78 H           40.1250    11.4000    26.8000 H             1 RES     
      79 H           39.0350    10.0000    26.8000 H             1 RES     
      80 H           68.9050    11.4000    10.0000 H             1 RES     
      81 H           37.9410    11.4000    26.8000 H             1 RES     
      82 O           67.8110    12.8500    23.0000 O             1 RES     
      83 C           67.8110    11.4000    23.0000 C             1 RES     
      84 H           66.7210    11.4000    23.0000 H             1 RES     
      85 C           67.8110    11.4000    24.4000 C             1 RES     
      86 H           68.9010    11.4000    24.4000 H             1 RES     
      87 H           67.8110    10.0000    24.4000 H             1 RES     
      88 O           65.1950    12.8500    24.4000 O             1 RES     
      89 C           65.1950    11.4000    24.4000 C             1 RES     
      90 H           64.1050    11.4000    24.4000 H             1 RES     
      91 C           65.1950    11.4000    25.8000 C             1 RES     
      92 H           66.2850    11.4000    25.8000 H             1 RES     
      93 H           65.1950    10.0000    25.8000 H             1 RES     
      94 O           62.5790    12.8500    25.8000 O             1 RES     
      95 C           62.5790    11.4000    25.8000 C             1 RES     
      96 H           61.4890    11.4000    25.8000 H             1 RES     
      97 C           62.5790    11.4000    27.2000 C             1 RES     
      98 H           63.6690    11.4000    27.2000 H             1 RES     
      99 H           62.5790    10.0000    27.2000 H             1 RES     
     100 O           59.9630    12.8500    27.2000 O             1 RES     
     101 C           59.9630    11.4000    27.2000 C             1 RES     
     102 H           58.8730    11.4000    27.2000 H             1 RES     
     103 C           59.9630    11.4000    28.6000 C             1 RES     
     104 H           61.0530    11.4000    28.6000 H             1 RES     
     105 H           59.9630    10.0000    28.6000 H             1 RES     
     106 O           57.3470    12.8500    28.6000 O             1 RES     
     107 C           57.3470    11.4000    28.6000 C             1 RES     
     108 H           56.2570    11.4000    28.6000 H             1 RES     
     109 C           57.3470    11.4000    30.0000 C             1 RES     
     110 H           58.4370    11.4000    30.0000 H             1 RES     
     111 H           57.3470    10.0000    30.0000 H             1 RES     
     112 O           54.7310    12.8500    30.0000 O             1 RES     
     113 C           54.7310    11.4000    30.0000 C             1 RES     
     114 H           53.6410    11.4000    30.0000 H             1 RES     
     115 C           54.7310    11.4000    31.4000 C             1 RES     
     116 H           55.8210    11.4000    31.4000 H             1 RES     
     117 H           54.7310    10.0000    31.4000 H             1 RES     
     118 O           52.1150    12.8500    31.4000 O             1 RES     
     119 C           52.1150    11.4000    31.4000 C             1 RES     
     120 H           51.0250    11.4000    31.4000 H             1 RES     
     121 C           52.1150    11.4000    32.8000 C             1 RES     
     122 H           53.2050    11.4000    32.8000 H             1 RES     
     123 H           52.1150    10.0000    32.8000 H             1 RES     
     124 O           49.4990    12.8500    32.8000 O             1 RES     
     125 C           49.4990    11.4000    32.8000 C             1 RES     
     126 H           48.4090    11.4000    32.8000 H             1 RES     
     127 C           49.4990    11.4000    34.2000 C             1 RES     
     128 H           50.5890    11.4000    34.2000 H             1 RES     
     129 H           49.4990    10.0000    34.2000 H             1 RES     
     130 O           46.8830    12.8500    34.2000 O             1 RES     
     131 C           46.8830    11.4000    34.2000 C             1 RES     
     132 H           45.7930    11.4000    34.2000 H             1 RES     
     133 C           46.8830    11.4000    35.6000 C             1 RES     
     134 H           47.9730    11.4000    35.6000 H             1 RES     
     135 H           46.8830    10.0000    35.6000 H             1 RES     
     136 O           44.2670    12.8500    35.6000 O             1 RES     
     137 H           44.2670    13.8500    35.6000 H             1 RES     
     138 C           44.2670    11.4000    35.6000 C             1 RES     
     139 H           43.1770    11.4000    35.6000 H             1 RES     
     140 C           44.2670    11.4000    37.0000 C             1 RES     
     141 H           45.3570    11.4000    37.0000 H             1 RES     
     142 H           44.2670    10.0000    37.0000 H             1 RES     
     143 O           41.6510    12.8500    37.0000 O             1 RES     
     144 H           41.6510    13.8500    37.0000 H             1 RES     
     145 C           41.6510    11.4000    37.0000 C             1 RES     
     146 H           40.5610    11.4000    37.0000 H             1 RES     
     147 C           41.6510    11.4000    38.4000 C             1 RES     
     148 H           42.7410    11.4000    38.4000 H             1 RES     
     149 H           41.6510    10.0000    38.4000 H             1 RES     
     150 O           39.0350    12.8500    38.4000 O             1 RES     
     151 C           39.0350    11.4000    38.4000 C             1 RES     
     152 H           37.9450    11.4000    38.4000 H             1 RES     
     153 C           39.0350    11.4000    39.8000 C             1 RES     
     154 H           40.1250    11.4000    39.8000 H             1 RES     
     155 H           39.0350    10.0000    39.8000 H             1 RES     
     156 H           68.9050    11.4000    23.0000 H             1 RES     
     157 H           37.9410    11.4000    39.8000 H             1 RES     
     158 O           67.8110    12.8500    36.0000 O             1 RES     
     159 C           67.8110    11.4000    36.0000 C             1 RES     
     160 H           66.7210    11.4000    36.0000 H             1 RES     
     161 C           67.8110    11.4000    37.4000 C             1 RES     
     162 H           68.9010    11.4000    37.4000 H             1 RES     
     163 H           67.8110    10.0000    37.4000 H             1 RES     
     164 O           65.1950    12.8500    37.4000 O             1 RES     
     165 H           65.1950    13.8500    37.4000 H             1 RES     
     166 C           65.1950    11.4000    37.4000 C             1 RES     
     167 H           64.1050    11.4000    37.4000 H             1 RES     
     168 C           65.1950    11.4000    38.8000 C             1 RES     
     169 H           66.2850    11.4000    38.8000 H             1 RES     
     170 H           65.1950    10.0000    38.8000 H             1 RES     
     171 O           62.5790    12.8500    38.8000 O             1 RES     
     172 H           62.5790    13.8500    38.8000 H             1 RES     
     173 C           62.5790    11.4000    38.8000 C             1 RES     
     174 H           61.4890    11.4000    38.8000 H             1 RES     
     175 C           62.5790    11.4000    40.2000 C             1 RES     
     176 H           63.6690    11.4000    40.2000 H             1 RES     
     177 H           62.5790    10.0000    40.2000 H             1 RES     
     178 O           59.9630    12.8500    40.2000 O             1 RES     
     179 H           59.9630    13.8500    40.2000 H             1 RES     
     180 C           59.9630    11.4000    40.2000 C             1 RES     
     181 H           58.8730    11.4000    40.2000 H             1 RES     
     182 C           59.9630    11.4000    41.6000 C             1 RES     
     183 H           61.0530    11.4000    41.6000 H             1 RES     
     184 H           59.9630    10.0000    41.6000 H             1 RES     
     185 O           57.3470    12.8500    41.6000 O             1 RES     
     186 C           57.3470    11.4000    41.6000 C             1 RES     
     187 H           56.2570    11.4000    41.6000 H             1 RES     
     188 C           57.3470    11.4000    43.0000 C             1 RES     
     189 H           58.4370    11.4000    43.0000 H             1 RES     
     190 H           57.3470    10.0000    43.0000 H             1 RES     
     191 O           54.7310    12.8500    43.0000 O             1 RES     
     192 C           54.7310    11.4000    43.0000 C             1 RES     
     193 H           53.6410    11.4000    43.0000 H             1 RES     
     194 C           54.7310    11.4000    44.4000 C             1 RES     
     195 H           55.8210    11.4000    44.4000 H             1 RES     
     196 H           54.7310    10.0000    44.4000 H             1 RES     
     197 O           52.1150    12.8500    44.4000 O             1 RES     
     198 H           52.1150    13.8500    44.4000 H             1 RES     
     199 C           52.1150    11.4000    44.4000 C             1 RES     
     200 H           51.0250    11.4000    44.4000 H             1 RES     
     201 C           52.1150    11.4000    45.8000 C             1 RES     
     202 H           53.2050    11.4000    45.8000 H             1 RES     
     203 H           52.1150    10.0000    45.8000 H             1 RES     
     204 O           49.4990    12.8500    45.8000 O             1 RES     
     205 C           49.4990    11.4000    45.8000 C             1 RES     
     206 H           48.4090    11.4000    45.8000 H             1 RES     
     207 C           49.4990    11.4000    47.2000 C             1 RES     
     208 H           50.5890    11.4000    47.2000 H             1 RES     
     209 H           49.4990    10.0000    47.2000 H             1 RES     
     210 O           46.8830    12.8500    47.2000 O             1 RES     
     211 C           46.8830    11.4000    47.2000 C             1 RES     
     212 H           45.7930    11.4000    47.2000 H             1 RES     
     213 C           46.8830    11.4000    48.6000 C             1 RES     
     214 H           47.9730    11.4000    48.6000 H             1 RES     
     215 H           46.8830    10.0000    48.6000 H             1 RES     
     216 O           44.2670    12.8500    48.6000 O             1 RES     
     217 H           44.2670    13.8500    48.6000 H             1 RES     
     218 C           44.2670    11.4000    48.6000 C             1 RES     
     219 H           43.1770    11.4000    48.6000 H             1 RES     
     220 C           44.2670    11.4000    50.0000 C             1 RES     
     221 H           45.3570    11.4000    50.0000 H             1 RES     
     222 H           44.2670    10.0000    50.0000 H             1 RES     
     223 O           41.6510    12.8500    50.0000 O             1 RES     
     224 H           41.6510    13.8500    50.0000 H             1 RES     
     225 C           41.6510    11.4000    50.0000 C             1 RES     
     226 H           40.5610    11.4000    50.0000 H             1 RES     
     227 C           41.6510    11.4000    51.4000 C             1 RES     
     228 H           42.7410    11.4000    51.4000 H             1 RES     
     229 H           41.6510    10.0000    51.4000 H             1 RES     
     230 O           39.0350    12.8500    51.4000 O             1 RES     
     231 H           39.0350    13.8500    51.4000 H             1 RES     
     232 C           39.0350    11.4000    51.4000 C             1 RES     
     233 H           37.9450    11.4000    51.4000 H             1 RES     
     234 C           39.0350    11.4000    52.8000 C             1 RES     
     235 H           40.1250    11.4000    52.8000 H             1 RES     
     236 H           39.0350    10.0000    52.8000 H             1 RES     
     237 H           68.9050    11.4000    36.0000 H             1 RES     
     238 H           37.9410    11.4000    52.8000 H             1 RES     
     239 C           65.6234    16.1826    19.8747 C             1 RES     
     240 N           65.2726    14.9736    19.1911 N             1 RES     
     241 C           65.2117    14.9628    17.8247 C             1 RES     
     242 O           65.3621    15.9778    17.1470 O             1 RES     
     243 N           64.9706    13.7358    17.2703 N             1 RES     
     244 C           64.7822    13.6231    15.8547 C             1 RES     
     245 H           64.8545    16.9457    19.7124 H             1 RES     
     246 H           66.5856    16.5634    19.5176 H             1 RES     
     247 H           65.2773    14.1188    19.7222 H             1 RES     
     248 H           64.7219    12.9436    17.8388 H             1 RES     
     249 H           65.7041    13.8924    15.3278 H             1 RES     
     250 H           63.9739    14.2804    15.5187 H             1 RES     
     251 C           63.0074    12.1826    21.2747 C             1 RES     
     252 N           62.6566    10.9736    20.5911 N             1 RES     
     253 C           62.5957    10.9628    19.2247 C             1 RES     
     254 O           62.7461    11.9778    18.5470 O             1 RES     
     255 N           62.3546     9.7358    18.6703 N             1 RES     
     256 C           62.1662     9.6231    17.2547 C             1 RES     
     257 H           62.2385    12.9457    21.1124 H             1 RES     
     258 H           63.9696    12.5634    20.9176 H             1 RES     
     259 H           62.6613    10.1188    21.1222 H             1 RES     
     260 H           62.1059     8.9436    19.2388 H             1 RES     
     261 H           63.0881     9.8924    16.7278 H             1 RES     
     262 H           61.3579    10.2804    16.9187 H             1 RES     
     263 C           60.3914    16.1826    22.6747 C             1 RES     
     264 N           60.0406    14.9736    21.9911 N             1 RES     
     265 C           59.9797    14.9628    20.6247 C             1 RES     
     266 O           60.1301    15.9778    19.9470 O             1 RES     
     267 N           59.7386    13.7358    20.0703 N             1 RES     
     268 C           59.5502    13.6231    18.6547 C             1 RES     
     269 H           59.6225    16.9457    22.5124 H             1 RES     
     270 H           61.3536    16.5634    22.3176 H             1 RES     
     271 H           60.0453    14.1188    22.5222 H             1 RES     
     272 H           59.4899    12.9436    20.6388 H             1 RES     
     273 H           60.4721    13.8924    18.1278 H             1 RES     
     274 H           58.7419    14.2804    18.3187 H             1 RES     
     275 C           52.5434    12.1826    26.8747 C             1 RES     
     276 N           52.1926    10.9736    26.1911 N             1 RES     
     277 C           52.1317    10.9628    24.8247 C             1 RES     
     278 O           52.2821    11.9778    24.1470 O             1 RES     
     279 N           51.8906     9.7358    24.2703 N             1 RES     
     280 C           51.7022     9.6231    22.8547 C             1 RES     
     281 H           51.7745    12.9457    26.7124 H             1 RES     
     282 H           53.5056    12.5634    26.5176 H             1 RES     
     283 H           52.1973    10.1188    26.7222 H             1 RES     
     284 H           51.6419     8.9436    24.8388 H             1 RES     
     285 H           52.6241     9.8924    22.3278 H             1 RES     
     286 H           50.8939    10.2804    22.5187 H             1 RES     
     287 C           39.4634    16.1826    33.8747 C             1 RES     
     288 N           39.1126    14.9736    33.1911 N             1 RES     
     289 C           39.0517    14.9628    31.8247 C             1 RES     
     290 O           39.2021    15.9778    31.1470 O             1 RES     
     291 N           38.8106    13.7358    31.2703 N             1 RES     
     292 C           38.6222    13.6231    29.8547 C             1 RES     
     293 H           38.6945    16.9457    33.7124 H             1 RES     
     294 H           40.4256    16.5634    33.5176 H             1 RES     
     295 H           39.1173    14.1188    33.7222 H             1 RES     
     296 H           38.5619    12.9436    31.8388 H             1 RES     
     297 H           39.5441    13.8924    29.3278 H             1 RES     
     298 H           37.8139    14.2804    29.5187 H             1 RES     
     299 C           68.2394    12.1826    31.4747 C             1 RES     
     300 N           67.8886    10.9736    30.7911 N             1 RES     
     301 C           67.8277    10.9628    29.4247 C             1 RES     
     302 O           67.9781    11.9778    28.7470 O             1 RES     
     303 N           67.5866     9.7358    28.8703 N             1 RES     
     304 C           67.3982     9.6231    27.4547 C             1 RES     
     305 H           67.4705    12.9457    31.3124 H             1 RES     
     306 H           69.2016    12.5634    31.1176 H             1 RES     
     307 H           67.8933    10.1188    31.3222 H             1 RES     
     308 H           67.3379     8.9436    29.4388 H             1 RES     
     309 H           68.3201     9.8924    26.9278 H             1 RES     
     310 H           66.5899    10.2804    27.1187 H             1 RES     
     311 C           57.7754    16.1826    37.0747 C             1 RES     
     312 N           57.4246    14.9736    36.3911 N             1 RES     
     313 C           57.3637    14.9628    35.0247 C             1 RES     
     314 O           57.5141    15.9778    34.3470 O             1 RES     
     315 N           57.1226    13.7358    34.4703 N             1 RES     
     316 C           56.9342    13.6231    33.0547 C             1 RES     
     317 H           57.0065    16.9457    36.9124 H             1 RES     
     318 H           58.7376    16.5634    36.7176 H             1 RES     
     319 H           57.4293    14.1188    36.9222 H             1 RES     
     320 H           56.8739    12.9436    35.0388 H             1 RES     
     321 H           57.8561    13.8924    32.5278 H             1 RES     
     322 H           56.1259    14.2804    32.7187 H             1 RES     
     323 C           55.1594    12.1826    38.4747 C             1 RES     
     324 N           54.8086    10.9736    37.7911 N             1 RES     
     325 C           54.7477    10.9628    36.4247 C             1 RES     
     326 O           54.8981    11.9778    35.7470 O             1 RES     
     327 N           54.5066     9.7358    35.8703 N             1 RES     
     328 C           54.3182     9.6231    34.4547 C             1 RES     
     329 H           54.3905    12.9457    38.3124 H             1 RES     
     330 H           56.1216    12.5634    38.1176 H             1 RES     
     331 H           54.8133    10.1188    38.3222 H             1 RES     
     332 H           54.2579     8.9436    36.4388 H             1 RES     
     333 H           55.2401     9.8924    33.9278 H             1 RES     
     334 H           53.5099    10.2804    34.1187 H             1 RES     
     335 C           49.9274    16.1826    41.2747 C             1 RES     
     336 N           49.5766    14.9736    40.5911 N             1 RES     
     337 C           49.5157    14.9628    39.2247 C             1 RES     
     338 O           49.6661    15.9778    38.5470 O             1 RES     
     339 N           49.2746    13.7358    38.6703 N             1 RES     
     340 C           49.0862    13.6231    37.2547 C             1 RES     
     341 H           49.1585    16.9457    41.1124 H             1 RES     
     342 H           50.8896    16.5634    40.9176 H             1 RES     
     343 H           49.5813    14.1188    41.1222 H             1 RES     
     344 H           49.0259    12.9436    39.2388 H             1 RES     
     345 H           50.0081    13.8924    36.7278 H             1 RES     
     346 H           48.2779    14.2804    36.9187 H             1 RES     
     347 C           47.3114    12.1826    42.6747 C             1 RES     
     348 N           46.9606    10.9736    41.9911 N             1 RES     
     349 C           46.8997    10.9628    40.6247 C             1 RES     
     350 O           47.0501    11.9778    39.9470 O             1 RES     
     351 N           46.6586     9.7358    40.0703 N             1 RES     
     352 C           46.4702     9.6231    38.6547 C             1 RES     
     353 H           46.5425    12.9457    42.5124 H             1 RES     
     354 H           48.2736    12.5634    42.3176 H             1 RES     
     355 H           46.9653    10.1188    42.5222 H             1 RES     
     356 H           46.4099     8.9436    40.6388 H             1 RES     
     357 H           47.3921     9.8924    38.1278 H             1 RES     
     358 H           45.6619    10.2804    38.3187 H             1 RES     
@<TRIPOS>BOND
       1        1        2 1
       2        1        3 1
       3        3        4 1
       4        3        5 1
       5        3       80 1
       6        5        6 1
       7        5        7 1
       8        5        9 1
       9        8        9 1
      10        8      239 1
      11        9       10 1
      12        9       11 1
      13       11       12 1
      14       11       13 1
      15       11       15 1
      16       14       15 1
      17       14      251 1
      18       15       16 1
      19       15       17 1
      20       17       18 1
      21       17       19 1
      22       17       21 1
      23       20       21 1
      24       20      263 1
      25       21       22 1
      26       21       23 1
      27       23       24 1
      28       23       25 1
      29       23       28 1
      30       26       27 1
      31       26       28 1
      32       28       29 1
      33       28       30 1
      34       30       31 1
      35       30       32 1
      36       30       35 1
      37       33       34 1
      38       33       35 1
      39       35       36 1
      40       35       37 1
      41       37       38 1
      42       37       39 1
      43       37       41 1
      44       40       41 1
      45       40      275 1
      46       41       42 1
      47       41       43 1
      48       43       44 1
      49       43       45 1
      50       43       48 1
      51       46       47 1
      52       46       48 1
      53       48       49 1
      54       48       50 1
      55       50       51 1
      56       50       52 1
      57       50       55 1
      58       53       54 1
      59       53       55 1
      60       55       56 1
      61       55       57 1
      62       57       58 1
      63       57       59 1
      64       57       62 1
      65       60       61 1
      66       60       62 1
      67       62       63 1
      68       62       64 1
      69       64       65 1
      70       64       66 1
      71       64       69 1
      72       67       68 1
      73       67       69 1
      74       69       70 1
      75       69       71 1
      76       71       72 1
      77       71       73 1
      78       71       75 1
      79       74       75 1
      80       74      287 1
      81       75       76 1
      82       75       77 1
      83       77       78 1
      84       77       79 1
      85       77       81 1
      86       82       83 1
      87       82      299 1
      88       83       84 1
      89       83       85 1
      90       83      156 1
      91       85       86 1
      92       85       87 1
      93       85       89 1
      94       88       89 1
      95       88      244 1
      96       89       90 1
      97       89       91 1
      98       91       92 1
      99       91       93 1
     100       91       95 1
     101       94       95 1
     102       94      256 1
     103       95       96 1
     104       95       97 1
     105       97       98 1
     106       97       99 1
     107       97      101 1
     108      100      101 1
     109      100      268 1
     110      101      102 1
     111      101      103 1
     112      103      104 1
     113      103      105 1
     114      103      107 1
     115      106      107 1
     116      106      311 1
     117      107      108 1
     118      107      109 1
     119      109      110 1
     120      109      111 1
     121      109      113 1
     122      112      113 1
     123      112      323 1
     124      113      114 1
     125      113      115 1
     126      115      116 1
     127      115      117 1
     128      115      119 1
     129      118      119 1
     130      118      280 1
     131      119      120 1
     132      119      121 1
     133      121      122 1
     134      121      123 1
     135      121      125 1
     136      124      125 1
     137      124      335 1
     138      125      126 1
     139      125      127 1
     140      127      128 1
     141      127      129 1
     142      127      131 1
     143      130      131 1
     144      130      347 1
     145      131      132 1
     146      131      133 1
     147      133      134 1
     148      133      135 1
     149      133      138 1
     150      136      137 1
     151      136      138 1
     152      138      139 1
     153      138      140 1
     154      140      141 1
     155      140      142 1
     156      140      145 1
     157      143      144 1
     158      143      145 1
     159      145      146 1
     160      145      147 1
     161      147      148 1
     162      147      149 1
     163      147      151 1
     164      150      151 1
     165      150      292 1
     166      151      152 1
     167      151      153 1
     168      153      154 1
     169      153      155 1
     170      153      157 1
     171      158      159 1
     172      158      304 1
     173      159      160 1
     174      159      161 1
     175      159      237 1
     176      161      162 1
     177      161      163 1
     178      161      166 1
     179      164      165 1
     180      164      166 1
     181      166      167 1
     182      166      168 1
     183      168      169 1
     184      168      170 1
     185      168      173 1
     186      171      172 1
     187      171      173 1
     188      173      174 1
     189      173      175 1
     190      175      176 1
     191      175      177 1
     192      175      180 1
     193      178      179 1
     194      178      180 1
     195      180      181 1
     196      180      182 1
     197      182      183 1
     198      182      184 1
     199      182      186 1
     200      185      186 1
     201      185      316 1
     202      186      187 1
     203      186      188 1
     204      188      189 1
     205      188      190 1
     206      188      192 1
     207      191      192 1
     208      191      328 1
     209      192      193 1
     210      192      194 1
     211      194      195 1
     212      194      196 1
     213      194      199 1
     214      197      198 1
     215      197      199 1
     216      199      200 1
     217      199      201 1
     218      201      202 1
     219      201      203 1
     220      201      205 1
     221      204      205 1
     222      204      340 1
     223      205      206 1
     224      205      207 1
     225      207      208 1
     226      207      209 1
     227      207      211 1
     228      210      211 1
     229      210      352 1
     230      211      212 1
     231      211      213 1
     232      213      214 1
     233      213      215 1
     234      213      218 1
     235      216      217 1
     236      216      218 1
     237      218      219 1
     238      218      220 1
     239      220      221 1
     240      220      222 1
     241      220      225 1
     242      223      224 1
     243      223      225 1
     244      225      226 1
     245      225      227 1
     246      227      228 1
     247      227      229 1
     248      227      232 1
     249      230      231 1
     250      230      232 1
     251      232      233 1
     252      232      234 1
     253      234      235 1
     254      234      236 1
     255      234      238 1
     256      239      240 1
     257      239      245 1
     258      239      246 1
     259      240      241 1
     260      240      247 1
     261      241      242 1
     262      241      243 1
     263      243      244 1
     264      243      248 1
     265      244      249 1
     266      244      250 1
     267      251      252 1
     268      251      257 1
     269      251      258 1
     270      252      253 1
     271      252      259 1
     272      253      254 1
     273      253      255 1
     274      255      256 1
     275      255      260 1
     276      256      261 1
     277      256      262 1
     278      263      264 1
     279      263      269 1
     280      263      270 1
     281      264      265 1
     282      264      271 1
     283      265      266 1
     284      265      267 1
     285      267      268 1
     286      267      272 1
     287      268      273 1
     288      268      274 1
     289      275      276 1
     290      275      281 1
     291      275      282 1
     292      276      277 1
     293      276      283 1
     294      277      278 1
     295      277      279 1
     296      279      280 1
     297      279      284 1
     298      280      285 1
     299      280      286 1
     300      287      288 1
     301      287      293 1
     302      287      294 1
     303      288      289 1
     304      288      295 1
     305      289      290 1
     306      289      291 1
     307      291      292 1
     308      291      296 1
     309      292      297 1
     310      292      298 1
     311      299      300 1
     312      299      305 1
     313      299      306 1
     314      300      301 1
     315      300      307 1
     316      301      302 1
     317      301      303 1
     318      303      304 1
     319      303      308 1
     320      304      309 1
     321      304      310 1
     322      311      312 1
     323      311      317 1
     324      311      318 1
     325      312      313 1
     326      312      319 1
     327      313      314 1
     328      313      315 1
     329      315      316 1
     330      315      320 1
     331      316      321 1
     332      316      322 1
     333      323      324 1
     334      323      329 1
     335      323      330 1
     336      324      325 1
     337      324      331 1
     338      325      326 1
     339      325      327 1
     340      327      328 1
     341      327      332 1
     342      328      333 1
     343      328      334 1
     344      335      336 1
     345      335      341 1
     346      335      342 1
     347      336      337 1
     348      336      343 1
     349      337      338 1
     350      337      339 1
     351      339      340 1
     352      339      344 1
     353      340      345 1
     354      340      346 1
     355      347      348 1
     356      347      353 1
     357      347      354 1
     358      348      349 1
     359      348      355 1
     360      349      350 1
     361      349      351 1
     362      351      352 1
     363      351      356 1
     364      352      357 1
     365      352      358 1
@<TRIPOS>SUBSTRUCTURE
       1 RES             1 RESIDUE    0 **** ROOT      0
