@<TRIPOS>MOLECULE
RES
312 327 1 0 1
SMALL
NO_CHARGES
@<TRIPOS>CRYSIN
   35.9640    12.7031    47.8000    90.0000    90.0000    90.0000 1 1
@<TRIPOS>ATOM
       1 O           46.8673    12.8500    10.0000 O             1 RES     
       2 H           46.8673    13.8500    10.0000 H             1 RES     
       3 C           46.8673    11.4000    10.0000 C             1 RES     
       4 H           45.7773    11.4000    10.0000 H             1 RES     
       5 C           46.8673    11.4000    11.4000 C             1 RES     
       6 H           47.9573    11.4000    11.4000 H             1 RES     
       7 H           46.8673    10.0000    11.4000 H             1 RES     
       8 O           44.2513    12.8500    11.4000 O             1 RES     
       9 H           44.2513    13.8500    11.4000 H             1 RES     
      10 C           44.2513    11.4000    11.4000 C             1 RES     
      11 H           43.1613    11.4000    11.4000 H             1 RES     
      12 C           44.2513    11.4000    12.8000 C             1 RES     
      13 H           45.3413    11.4000    12.8000 H             1 RES     
      14 H           44.2513    10.0000    12.8000 H             1 RES     
      15 O           41.6353    12.8500    12.8000 O             1 RES     
      16 H           41.6353    13.8500    12.8000 H             1 RES     
      17 C           41.6353    11.4000    12.8000 C             1 RES     
      18 H           40.5453    11.4000    12.8000 H             1 RES     
      19 C           41.6353    11.4000    14.2000 C             1 RES     
      20 H           42.7253    11.4000    14.2000 H             1 RES     
      21 H           41.6353    10.0000    14.2000 H             1 RES     
      22 O           39.0193    12.8500    14.2000 O             1 RES     
      23 H           39.0193    13.8500    14.2000 H             1 RES     
      24 C           39.0193    11.4000    14.2000 C             1 RES     
      25 H           37.9293    11.4000    14.2000 H             1 RES     
      26 C           39.0193    11.4000    15.6000 C             1 RES     
      27 H           40.1093    11.4000    15.6000 H             1 RES     
      28 H           39.0193    10.0000    15.6000 H             1 RES     
      29 O           36.4033    12.8500    15.6000 O             1 RES     
      30 C           36.4033    11.4000    15.6000 C             1 RES     
      31 H           35.3133    11.4000    15.6000 H             1 RES     
      32 C           36.4033    11.4000    17.0000 C             1 RES     
      33 H           37.4933    11.4000    17.0000 H             1 RES     
      34 H           36.4033    10.0000    17.0000 H             1 RES     
      35 O           33.7873    12.8500    17.0000 O             1 RES     
      36 C           33.7873    11.4000    17.0000 C             1 RES     
      37 H           32.6973    11.4000    17.0000 H             1 RES     
      38 C           33.7873    11.4000    18.4000 C             1 RES     
      39 H           34.8773    11.4000    18.4000 H             1 RES     
      40 H           33.7873    10.0000    18.4000 H             1 RES     
      41 O           31.1713    12.8500    18.4000 O             1 RES     
      42 C           31.1713    11.4000    18.4000 C             1 RES     
      43 H           30.0813    11.4000    18.4000 H             1 RES     
      44 C           31.1713    11.4000    19.8000 C             1 RES     
      45 H           32.2613    11.4000    19.8000 H             1 RES     
      46 H           31.1713    10.0000    19.8000 H             1 RES     
      47 O           28.5553    12.8500    19.8000 O             1 RES     
      48 C           28.5553    11.4000    19.8000 C             1 RES     
      49 H           27.4653    11.4000    19.8000 H             1 RES     
      50 C           28.5553    11.4000    21.2000 C             1 RES     
      51 H           29.6453    11.4000    21.2000 H             1 RES     
      52 H           28.5553    10.0000    21.2000 H             1 RES     
      53 O           25.9393    12.8500    21.2000 O             1 RES     
      54 H           25.9393    13.8500    21.2000 H             1 RES     
      55 C           25.9393    11.4000    21.2000 C             1 RES     
      56 H           24.8493    11.4000    21.2000 H             1 RES     
      57 C           25.9393    11.4000    22.6000 C             1 RES     
      58 H           27.0293    11.4000    22.6000 H             1 RES     
      59 H           25.9393    10.0000    22.6000 H             1 RES     
      60 O           23.3233    12.8500    22.6000 O             1 RES     
      61 H           23.3233    13.8500    22.6000 H             1 RES     
      62 C           23.3233    11.4000    22.6000 C             1 RES     
      63 H           22.2333    11.4000    22.6000 H             1 RES     
      64 C           23.3233    11.4000    24.0000 C             1 RES     
      65 H           24.4133    11.4000    24.0000 H             1 RES     
      66 H           23.3233    10.0000    24.0000 H             1 RES     
      67 O           20.7073    12.8500    24.0000 O             1 RES     
      68 C           20.7073    11.4000    24.0000 C             1 RES     
      69 H           19.6173    11.4000    24.0000 H             1 RES     
      70 C           20.7073    11.4000    25.4000 C             1 RES     
      71 H           21.7973    11.4000    25.4000 H             1 RES     
      72 H           20.7073    10.0000    25.4000 H             1 RES     
      73 O           18.0913    12.8500    25.4000 O             1 RES     
      74 C           18.0913    11.4000    25.4000 C             1 RES     
      75 H           17.0013    11.4000    25.4000 H             1 RES     
      76 C           18.0913    11.4000    26.8000 C             1 RES     
      77 H           19.1813    11.4000    26.8000 H             1 RES     
      78 H           18.0913    10.0000    26.8000 H             1 RES     
      79 H           47.9613    11.4000    10.0000 H             1 RES     
      80 H           16.9973    11.4000    26.8000 H             1 RES     
      81 O           46.8673    12.8500    23.0000 O             1 RES     
      82 C           46.8673    11.4000    23.0000 C             1 RES     
      83 H           45.7773    11.4000    23.0000 H             1 RES     
      84 C           46.8673    11.4000    24.4000 C             1 RES     
      85 H           47.9573    11.4000    24.4000 H             1 RES     
      86 H           46.8673    10.0000    24.4000 H             1 RES     
      87 O           44.2513    12.8500    24.4000 O             1 RES     
      88 C           44.2513    11.4000    24.4000 C             1 RES     
      89 H           43.1613    11.4000    24.4000 H             1 RES     
      90 C           44.2513    11.4000    25.8000 C             1 RES     
      91 H           45.3413    11.4000    25.8000 H             1 RES     
      92 H           44.2513    10.0000    25.8000 H             1 RES     
      93 O           41.6353    12.8500    25.8000 O             1 RES     
      94 C           41.6353    11.4000    25.8000 C             1 RES     
      95 H           40.5453    11.4000    25.8000 H             1 RES     
      96 C           41.6353    11.4000    27.2000 C             1 RES     
      97 H           42.7253    11.4000    27.2000 H             1 RES     
      98 H           41.6353    10.0000    27.2000 H             1 RES     
      99 O           39.0193    12.8500    27.2000 O             1 RES     
     100 C           39.0193    11.4000    27.2000 C             1 RES     
     101 H           37.9293    11.4000    27.2000 H             1 RES     
     102 C           39.0193    11.4000    28.6000 C             1 RES     
     103 H           40.1093    11.4000    28.6000 H             1 RES     
     104 H           39.0193    10.0000    28.6000 H             1 RES     
     105 O           36.4033    12.8500    28.6000 O             1 RES     
     106 C           36.4033    11.4000    28.6000 C             1 RES     
     107 H           35.3133    11.4000    28.6000 H             1 RES     
     108 C           36.4033    11.4000    30.0000 C             1 RES     
     109 H           37.4933    11.4000    30.0000 H             1 RES     
     110 H           36.4033    10.0000    30.0000 H             1 RES     
     111 O           33.7873    12.8500    30.0000 O             1 RES     
     112 C           33.7873    11.4000    30.0000 C             1 RES     
     113 H           32.6973    11.4000    30.0000 H             1 RES     
     114 C           33.7873    11.4000    31.4000 C             1 RES     
     115 H           34.8773    11.4000    31.4000 H             1 RES     
     116 H           33.7873    10.0000    31.4000 H             1 RES     
     117 O           31.1713    12.8500    31.4000 O             1 RES     
     118 C           31.1713    11.4000    31.4000 C             1 RES     
     119 H           30.0813    11.4000    31.4000 H             1 RES     
     120 C           31.1713    11.4000    32.8000 C             1 RES     
     121 H           32.2613    11.4000    32.8000 H             1 RES     
     122 H           31.1713    10.0000    32.8000 H             1 RES     
     123 O           28.5553    12.8500    32.8000 O             1 RES     
     124 C           28.5553    11.4000    32.8000 C             1 RES     
     125 H           27.4653    11.4000    32.8000 H             1 RES     
     126 C           28.5553    11.4000    34.2000 C             1 RES     
     127 H           29.6453    11.4000    34.2000 H             1 RES     
     128 H           28.5553    10.0000    34.2000 H             1 RES     
     129 O           25.9393    12.8500    34.2000 O             1 RES     
     130 C           25.9393    11.4000    34.2000 C             1 RES     
     131 H           24.8493    11.4000    34.2000 H             1 RES     
     132 C           25.9393    11.4000    35.6000 C             1 RES     
     133 H           27.0293    11.4000    35.6000 H             1 RES     
     134 H           25.9393    10.0000    35.6000 H             1 RES     
     135 O           23.3233    12.8500    35.6000 O             1 RES     
     136 C           23.3233    11.4000    35.6000 C             1 RES     
     137 H           22.2333    11.4000    35.6000 H             1 RES     
     138 C           23.3233    11.4000    37.0000 C             1 RES     
     139 H           24.4133    11.4000    37.0000 H             1 RES     
     140 H           23.3233    10.0000    37.0000 H             1 RES     
     141 O           20.7073    12.8500    37.0000 O             1 RES     
     142 C           20.7073    11.4000    37.0000 C             1 RES     
     143 H           19.6173    11.4000    37.0000 H             1 RES     
     144 C           20.7073    11.4000    38.4000 C             1 RES     
     145 H           21.7973    11.4000    38.4000 H             1 RES     
     146 H           20.7073    10.0000    38.4000 H             1 RES     
     147 O           18.0913    12.8500    38.4000 O             1 RES     
     148 C           18.0913    11.4000    38.4000 C             1 RES     
     149 H           17.0013    11.4000    38.4000 H             1 RES     
     150 C           18.0913    11.4000    39.8000 C             1 RES     
     151 H           19.1813    11.4000    39.8000 H             1 RES     
     152 H           18.0913    10.0000    39.8000 H             1 RES     
     153 H           47.9613    11.4000    23.0000 H             1 RES     
     154 H           16.9973    11.4000    39.8000 H             1 RES     
     155 O           46.8673    12.8500    36.0000 O             1 RES     
     156 C           46.8673    11.4000    36.0000 C             1 RES     
     157 H           45.7773    11.4000    36.0000 H             1 RES     
     158 C           46.8673    11.4000    37.4000 C             1 RES     
     159 H           47.9573    11.4000    37.4000 H             1 RES     
     160 H           46.8673    10.0000    37.4000 H             1 RES     
     161 O           44.2513    12.8500    37.4000 O             1 RES     
     162 C           44.2513    11.4000    37.4000 C             1 RES     
     163 H           43.1613    11.4000    37.4000 H             1 RES     
     164 C           44.2513    11.4000    38.8000 C             1 RES     
     165 H           45.3413    11.4000    38.8000 H             1 RES     
     166 H           44.2513    10.0000    38.8000 H             1 RES     
     167 O           41.6353    12.8500    38.8000 O             1 RES     
     168 C           41.6353    11.4000    38.8000 C             1 RES     
     169 H           40.5453    11.4000    38.8000 H             1 RES     
     170 C           41.6353    11.4000    40.2000 C             1 RES     
     171 H           42.7253    11.4000    40.2000 H             1 RES     
     172 H           41.6353    10.0000    40.2000 H             1 RES     
     173 O           39.0193    12.8500    40.2000 O             1 RES     
     174 C           39.0193    11.4000    40.2000 C             1 RES     
     175 H           37.9293    11.4000    40.2000 H             1 RES     
     176 C           39.0193    11.4000    41.6000 C             1 RES     
     177 H           40.1093    11.4000    41.6000 H             1 RES     
     178 H           39.0193    10.0000    41.6000 H             1 RES     
     179 O           36.4033    12.8500    41.6000 O             1 RES     
     180 H           36.4033    13.8500    41.6000 H             1 RES     
     181 C           36.4033    11.4000    41.6000 C             1 RES     
     182 H           35.3133    11.4000    41.6000 H             1 RES     
     183 C           36.4033    11.4000    43.0000 C             1 RES     
     184 H           37.4933    11.4000    43.0000 H             1 RES     
     185 H           36.4033    10.0000    43.0000 H             1 RES     
     186 O           33.7873    12.8500    43.0000 O             1 RES     
     187 H           33.7873    13.8500    43.0000 H             1 RES     
     188 C           33.7873    11.4000    43.0000 C             1 RES     
     189 H           32.6973    11.4000    43.0000 H             1 RES     
     190 C           33.7873    11.4000    44.4000 C             1 RES     
     191 H           34.8773    11.4000    44.4000 H             1 RES     
     192 H           33.7873    10.0000    44.4000 H             1 RES     
     193 O           31.1713    12.8500    44.4000 O             1 RES     
     194 H           31.1713    13.8500    44.4000 H             1 RES     
     195 C           31.1713    11.4000    44.4000 C             1 RES     
     196 H           30.0813    11.4000    44.4000 H             1 RES     
     197 C           31.1713    11.4000    45.8000 C             1 RES     
     198 H           32.2613    11.4000    45.8000 H             1 RES     
     199 H           31.1713    10.0000    45.8000 H             1 RES     
     200 O           28.5553    12.8500    45.8000 O             1 RES     
     201 H           28.5553    13.8500    45.8000 H             1 RES     
     202 C           28.5553    11.4000    45.8000 C             1 RES     
     203 H           27.4653    11.4000    45.8000 H             1 RES     
     204 C           28.5553    11.4000    47.2000 C             1 RES     
     205 H           29.6453    11.4000    47.2000 H             1 RES     
     206 H           28.5553    10.0000    47.2000 H             1 RES     
     207 O           25.9393    12.8500    47.2000 O             1 RES     
     208 C           25.9393    11.4000    47.2000 C             1 RES     
     209 H           24.8493    11.4000    47.2000 H             1 RES     
     210 C           25.9393    11.4000    48.6000 C             1 RES     
     211 H           27.0293    11.4000    48.6000 H             1 RES     
     212 H           25.9393    10.0000    48.6000 H             1 RES     
     213 O           23.3233    12.8500    48.6000 O             1 RES     
     214 C           23.3233    11.4000    48.6000 C             1 RES     
     215 H           22.2333    11.4000    48.6000 H             1 RES     
     216 C           23.3233    11.4000    50.0000 C             1 RES     
     217 H           24.4133    11.4000    50.0000 H             1 RES     
     218 H           23.3233    10.0000    50.0000 H             1 RES     
     219 O           20.7073    12.8500    50.0000 O             1 RES     
     220 H           20.7073    13.8500    50.0000 H             1 RES     
     221 C           20.7073    11.4000    50.0000 C             1 RES     
     222 H           19.6173    11.4000    50.0000 H             1 RES     
     223 C           20.7073    11.4000    51.4000 C             1 RES     
     224 H           21.7973    11.4000    51.4000 H             1 RES     
     225 H           20.7073    10.0000    51.4000 H             1 RES     
     226 O           18.0913    12.8500    51.4000 O             1 RES     
     227 H           18.0913    13.8500    51.4000 H             1 RES     
     228 C           18.0913    11.4000    51.4000 C             1 RES     
     229 H           17.0013    11.4000    51.4000 H             1 RES     
     230 C           18.0913    11.4000    52.8000 C             1 RES     
     231 H           19.1813    11.4000    52.8000 H             1 RES     
     232 H           18.0913    10.0000    52.8000 H             1 RES     
     233 H           47.9613    11.4000    36.0000 H             1 RES     
     234 H           16.9973    11.4000    52.8000 H             1 RES     
     235 C           35.0924    15.1585    22.9293 C             1 RES     
     236 C           35.8313    13.9710    23.5371 C             1 RES     
     237 C           36.5535    14.3559    24.8013 C             1 RES     
     238 C           34.3686    14.7476    21.6515 C             1 RES     
     239 C           33.6318    15.9072    21.0348 C             1 RES     
     240 H           35.7993    15.9706    22.7155 H             1 RES     
     241 H           34.3740    15.5639    23.6536 H             1 RES     
     242 H           36.5720    13.5859    22.8283 H             1 RES     
     243 H           35.1230    13.1725    23.7820 H             1 RES     
     244 H           36.4662    15.4069    25.1243 H             1 RES     
     245 H           33.6390    13.9604    21.8689 H             1 RES     
     246 H           35.0880    14.3739    20.9152 H             1 RES     
     247 H           33.7000    16.8756    21.5583 H             1 RES     
     248 C           29.8604    11.1585    25.7293 C             1 RES     
     249 C           30.5993     9.9710    26.3371 C             1 RES     
     250 C           31.3215    10.3559    27.6013 C             1 RES     
     251 C           29.1366    10.7476    24.4515 C             1 RES     
     252 C           28.3998    11.9072    23.8348 C             1 RES     
     253 H           30.5673    11.9706    25.5155 H             1 RES     
     254 H           29.1420    11.5639    26.4536 H             1 RES     
     255 H           31.3400     9.5859    25.6283 H             1 RES     
     256 H           29.8910     9.1725    26.5820 H             1 RES     
     257 H           31.2342    11.4069    27.9243 H             1 RES     
     258 H           28.4070     9.9604    24.6689 H             1 RES     
     259 H           29.8560    10.3739    23.7152 H             1 RES     
     260 H           28.4680    12.8756    24.3583 H             1 RES     
     261 C           19.3964    15.1585    31.3293 C             1 RES     
     262 C           20.1353    13.9710    31.9371 C             1 RES     
     263 C           20.8575    14.3559    33.2013 C             1 RES     
     264 C           18.6726    14.7476    30.0515 C             1 RES     
     265 C           17.9358    15.9072    29.4348 C             1 RES     
     266 H           20.1033    15.9706    31.1155 H             1 RES     
     267 H           18.6780    15.5639    32.0536 H             1 RES     
     268 H           20.8760    13.5859    31.2283 H             1 RES     
     269 H           19.4270    13.1725    32.1820 H             1 RES     
     270 H           20.7702    15.4069    33.5243 H             1 RES     
     271 H           17.9430    13.9604    30.2689 H             1 RES     
     272 H           19.3920    14.3739    29.3152 H             1 RES     
     273 H           18.0040    16.8756    29.9583 H             1 RES     
     274 C           45.4157    10.8962    30.4985 C             1 RES     
     275 C           44.9158    11.5052    29.1929 C             1 RES     
     276 C           43.6865    12.3477    29.4094 C             1 RES     
     277 C           46.6598    10.0478    30.2574 C             1 RES     
     278 C           47.1700     9.4367    31.5357 C             1 RES     
     279 H           44.6263    10.2837    30.9532 H             1 RES     
     280 H           45.6382    11.6911    31.2222 H             1 RES     
     281 H           44.6616    10.7126    28.4812 H             1 RES     
     282 H           45.6904    12.1433    28.7546 H             1 RES     
     283 H           43.3092    12.4215    30.4431 H             1 RES     
     284 H           47.4597    10.6648    29.8346 H             1 RES     
     285 H           46.4309     9.2340    29.5612 H             1 RES     
     286 H           46.6072     9.6654    32.4562 H             1 RES     
     287 C           40.1837    14.8962    33.2985 C             1 RES     
     288 C           39.6838    15.5052    31.9929 C             1 RES     
     289 C           38.4545    16.3477    32.2094 C             1 RES     
     290 C           41.4278    14.0478    33.0574 C             1 RES     
     291 C           41.9380    13.4367    34.3357 C             1 RES     
     292 H           39.3943    14.2837    33.7532 H             1 RES     
     293 H           40.4062    15.6911    34.0222 H             1 RES     
     294 H           39.4296    14.7126    31.2812 H             1 RES     
     295 H           40.4584    16.1433    31.5546 H             1 RES     
     296 H           38.0772    16.4215    33.2431 H             1 RES     
     297 H           42.2277    14.6648    32.6346 H             1 RES     
     298 H           41.1989    13.2340    32.3612 H             1 RES     
     299 H           41.3752    13.6654    35.2562 H             1 RES     
     300 C           24.4877    10.8962    41.6985 C             1 RES     
     301 C           23.9878    11.5052    40.3929 C             1 RES     
     302 C           22.7585    12.3477    40.6094 C             1 RES     
     303 C           25.7318    10.0478    41.4574 C             1 RES     
     304 C           26.2420     9.4367    42.7357 C             1 RES     
     305 H           23.6983    10.2837    42.1532 H             1 RES     
     306 H           24.7102    11.6911    42.4222 H             1 RES     
     307 H           23.7336    10.7126    39.6812 H             1 RES     
     308 H           24.7624    12.1433    39.9546 H             1 RES     
     309 H           22.3812    12.4215    41.6431 H             1 RES     
     310 H           26.5317    10.6648    41.0346 H             1 RES     
     311 H           25.5029     9.2340    40.7612 H             1 RES     
     312 H           25.6792     9.6654    43.6562 H             1 RES     
@<TRIPOS>BOND
       1        1        2 1
       2        1        3 1
       3        3        4 1
       4        3        5 1
       5        3       79 1
       6        5        6 1
       7        5        7 1
       8        5       10 1
       9        8        9 1
      10        8       10 1
      11       10       11 1
      12       10       12 1
      13       12       13 1
      14       12       14 1
      15       12       17 1
      16       15       16 1
      17       15       17 1
      18       17       18 1
      19       17       19 1
      20       19       20 1
      21       19       21 1
      22       19       24 1
      23       22       23 1
      24       22       24 1
      25       24       25 1
      26       24       26 1
      27       26       27 1
      28       26       28 1
      29       26       30 1
      30       29       30 1
      31       29      237 1
      32       30       31 1
      33       30       32 1
      34       32       33 1
      35       32       34 1
      36       32       36 1
      37       35       36 1
      38       35      237 1
      39       36       37 1
      40       36       38 1
      41       38       39 1
      42       38       40 1
      43       38       42 1
      44       41       42 1
      45       41      250 1
      46       42       43 1
      47       42       44 1
      48       44       45 1
      49       44       46 1
      50       44       48 1
      51       47       48 1
      52       47      250 1
      53       48       49 1
      54       48       50 1
      55       50       51 1
      56       50       52 1
      57       50       55 1
      58       53       54 1
      59       53       55 1
      60       55       56 1
      61       55       57 1
      62       57       58 1
      63       57       59 1
      64       57       62 1
      65       60       61 1
      66       60       62 1
      67       62       63 1
      68       62       64 1
      69       64       65 1
      70       64       66 1
      71       64       68 1
      72       67       68 1
      73       67      263 1
      74       68       69 1
      75       68       70 1
      76       70       71 1
      77       70       72 1
      78       70       74 1
      79       73       74 1
      80       73      263 1
      81       74       75 1
      82       74       76 1
      83       76       77 1
      84       76       78 1
      85       76       80 1
      86       81       82 1
      87       81      276 1
      88       82       83 1
      89       82       84 1
      90       82      153 1
      91       84       85 1
      92       84       86 1
      93       84       88 1
      94       87       88 1
      95       87      276 1
      96       88       89 1
      97       88       90 1
      98       90       91 1
      99       90       92 1
     100       90       94 1
     101       93       94 1
     102       93      289 1
     103       94       95 1
     104       94       96 1
     105       96       97 1
     106       96       98 1
     107       96      100 1
     108       99      100 1
     109       99      289 1
     110      100      101 1
     111      100      102 1
     112      102      103 1
     113      102      104 1
     114      102      106 1
     115      105      106 1
     116      105      239 1
     117      106      107 1
     118      106      108 1
     119      108      109 1
     120      108      110 1
     121      108      112 1
     122      111      112 1
     123      111      239 1
     124      112      113 1
     125      112      114 1
     126      114      115 1
     127      114      116 1
     128      114      118 1
     129      117      118 1
     130      117      252 1
     131      118      119 1
     132      118      120 1
     133      120      121 1
     134      120      122 1
     135      120      124 1
     136      123      124 1
     137      123      252 1
     138      124      125 1
     139      124      126 1
     140      126      127 1
     141      126      128 1
     142      126      130 1
     143      129      130 1
     144      129      302 1
     145      130      131 1
     146      130      132 1
     147      132      133 1
     148      132      134 1
     149      132      136 1
     150      135      136 1
     151      135      302 1
     152      136      137 1
     153      136      138 1
     154      138      139 1
     155      138      140 1
     156      138      142 1
     157      141      142 1
     158      141      265 1
     159      142      143 1
     160      142      144 1
     161      144      145 1
     162      144      146 1
     163      144      148 1
     164      147      148 1
     165      147      265 1
     166      148      149 1
     167      148      150 1
     168      150      151 1
     169      150      152 1
     170      150      154 1
     171      155      156 1
     172      155      278 1
     173      156      157 1
     174      156      158 1
     175      156      233 1
     176      158      159 1
     177      158      160 1
     178      158      162 1
     179      161      162 1
     180      161      278 1
     181      162      163 1
     182      162      164 1
     183      164      165 1
     184      164      166 1
     185      164      168 1
     186      167      168 1
     187      167      291 1
     188      168      169 1
     189      168      170 1
     190      170      171 1
     191      170      172 1
     192      170      174 1
     193      173      174 1
     194      173      291 1
     195      174      175 1
     196      174      176 1
     197      176      177 1
     198      176      178 1
     199      176      181 1
     200      179      180 1
     201      179      181 1
     202      181      182 1
     203      181      183 1
     204      183      184 1
     205      183      185 1
     206      183      188 1
     207      186      187 1
     208      186      188 1
     209      188      189 1
     210      188      190 1
     211      190      191 1
     212      190      192 1
     213      190      195 1
     214      193      194 1
     215      193      195 1
     216      195      196 1
     217      195      197 1
     218      197      198 1
     219      197      199 1
     220      197      202 1
     221      200      201 1
     222      200      202 1
     223      202      203 1
     224      202      204 1
     225      204      205 1
     226      204      206 1
     227      204      208 1
     228      207      208 1
     229      207      304 1
     230      208      209 1
     231      208      210 1
     232      210      211 1
     233      210      212 1
     234      210      214 1
     235      213      214 1
     236      213      304 1
     237      214      215 1
     238      214      216 1
     239      216      217 1
     240      216      218 1
     241      216      221 1
     242      219      220 1
     243      219      221 1
     244      221      222 1
     245      221      223 1
     246      223      224 1
     247      223      225 1
     248      223      228 1
     249      226      227 1
     250      226      228 1
     251      228      229 1
     252      228      230 1
     253      230      231 1
     254      230      232 1
     255      230      234 1
     256      235      236 1
     257      235      238 1
     258      235      240 1
     259      235      241 1
     260      236      237 1
     261      236      242 1
     262      236      243 1
     263      237      244 1
     264      238      239 1
     265      238      245 1
     266      238      246 1
     267      239      247 1
     268      248      249 1
     269      248      251 1
     270      248      253 1
     271      248      254 1
     272      249      250 1
     273      249      255 1
     274      249      256 1
     275      250      257 1
     276      251      252 1
     277      251      258 1
     278      251      259 1
     279      252      260 1
     280      261      262 1
     281      261      264 1
     282      261      266 1
     283      261      267 1
     284      262      263 1
     285      262      268 1
     286      262      269 1
     287      263      270 1
     288      264      265 1
     289      264      271 1
     290      264      272 1
     291      265      273 1
     292      274      275 1
     293      274      277 1
     294      274      279 1
     295      274      280 1
     296      275      276 1
     297      275      281 1
     298      275      282 1
     299      276      283 1
     300      277      278 1
     301      277      284 1
     302      277      285 1
     303      278      286 1
     304      287      288 1
     305      287      290 1
     306      287      292 1
     307      287      293 1
     308      288      289 1
     309      288      294 1
     310      288      295 1
     311      289      296 1
     312      290      291 1
     313      290      297 1
     314      290      298 1
     315      291      299 1
     316      300      301 1
     317      300      303 1
     318      300      305 1
     319      300      306 1
     320      301      302 1
     321      301      307 1
     322      301      308 1
     323      302      309 1
     324      303      304 1
     325      303      310 1
     326      303      311 1
     327      304      312 1
@<TRIPOS>SUBSTRUCTURE
       1 RES             1 RESIDUE    0 **** ROOT      0
