@<TRIPOS>MOLECULE
RES
312 327 1 0 1
SMALL
NO_CHARGES
@<TRIPOS>CRYSIN
   36.2724    12.5647    47.8000    90.0000    90.0000    90.0000 1 1
@<TRIPOS>ATOM
       1 O           39.8700    12.8500    10.0000 O             1 RES     
       2 H           39.8700    13.8500    10.0000 H             1 RES     
       3 C           39.8700    11.4000    10.0000 C             1 RES     
       4 H           38.7800    11.4000    10.0000 H             1 RES     
       5 C           39.8700    11.4000    11.4000 C             1 RES     
       6 H           40.9600    11.4000    11.4000 H             1 RES     
       7 H           39.8700    10.0000    11.4000 H             1 RES     
       8 O           37.2540    12.8500    11.4000 O             1 RES     
       9 H           37.2540    13.8500    11.4000 H             1 RES     
      10 C           37.2540    11.4000    11.4000 C             1 RES     
      11 H           36.1640    11.4000    11.4000 H             1 RES     
      12 C           37.2540    11.4000    12.8000 C             1 RES     
      13 H           38.3440    11.4000    12.8000 H             1 RES     
      14 H           37.2540    10.0000    12.8000 H             1 RES     
      15 O           34.6380    12.8500    12.8000 O             1 RES     
      16 H           34.6380    13.8500    12.8000 H             1 RES     
      17 C           34.6380    11.4000    12.8000 C             1 RES     
      18 H           33.5480    11.4000    12.8000 H             1 RES     
      19 C           34.6380    11.4000    14.2000 C             1 RES     
      20 H           35.7280    11.4000    14.2000 H             1 RES     
      21 H           34.6380    10.0000    14.2000 H             1 RES     
      22 O           32.0220    12.8500    14.2000 O             1 RES     
      23 H           32.0220    13.8500    14.2000 H             1 RES     
      24 C           32.0220    11.4000    14.2000 C             1 RES     
      25 H           30.9320    11.4000    14.2000 H             1 RES     
      26 C           32.0220    11.4000    15.6000 C             1 RES     
      27 H           33.1120    11.4000    15.6000 H             1 RES     
      28 H           32.0220    10.0000    15.6000 H             1 RES     
      29 O           29.4060    12.8500    15.6000 O             1 RES     
      30 H           29.4060    13.8500    15.6000 H             1 RES     
      31 C           29.4060    11.4000    15.6000 C             1 RES     
      32 H           28.3160    11.4000    15.6000 H             1 RES     
      33 C           29.4060    11.4000    17.0000 C             1 RES     
      34 H           30.4960    11.4000    17.0000 H             1 RES     
      35 H           29.4060    10.0000    17.0000 H             1 RES     
      36 O           26.7900    12.8500    17.0000 O             1 RES     
      37 H           26.7900    13.8500    17.0000 H             1 RES     
      38 C           26.7900    11.4000    17.0000 C             1 RES     
      39 H           25.7000    11.4000    17.0000 H             1 RES     
      40 C           26.7900    11.4000    18.4000 C             1 RES     
      41 H           27.8800    11.4000    18.4000 H             1 RES     
      42 H           26.7900    10.0000    18.4000 H             1 RES     
      43 O           24.1740    12.8500    18.4000 O             1 RES     
      44 C           24.1740    11.4000    18.4000 C             1 RES     
      45 H           23.0840    11.4000    18.4000 H             1 RES     
      46 C           24.1740    11.4000    19.8000 C             1 RES     
      47 H           25.2640    11.4000    19.8000 H             1 RES     
      48 H           24.1740    10.0000    19.8000 H             1 RES     
      49 O           21.5580    12.8500    19.8000 O             1 RES     
      50 C           21.5580    11.4000    19.8000 C             1 RES     
      51 H           20.4680    11.4000    19.8000 H             1 RES     
      52 C           21.5580    11.4000    21.2000 C             1 RES     
      53 H           22.6480    11.4000    21.2000 H             1 RES     
      54 H           21.5580    10.0000    21.2000 H             1 RES     
      55 O           18.9420    12.8500    21.2000 O             1 RES     
      56 C           18.9420    11.4000    21.2000 C             1 RES     
      57 H           17.8520    11.4000    21.2000 H             1 RES     
      58 C           18.9420    11.4000    22.6000 C             1 RES     
      59 H           20.0320    11.4000    22.6000 H             1 RES     
      60 H           18.9420    10.0000    22.6000 H             1 RES     
      61 O           16.3260    12.8500    22.6000 O             1 RES     
      62 C           16.3260    11.4000    22.6000 C             1 RES     
      63 H           15.2360    11.4000    22.6000 H             1 RES     
      64 C           16.3260    11.4000    24.0000 C             1 RES     
      65 H           17.4160    11.4000    24.0000 H             1 RES     
      66 H           16.3260    10.0000    24.0000 H             1 RES     
      67 O           13.7100    12.8500    24.0000 O             1 RES     
      68 C           13.7100    11.4000    24.0000 C             1 RES     
      69 H           12.6200    11.4000    24.0000 H             1 RES     
      70 C           13.7100    11.4000    25.4000 C             1 RES     
      71 H           14.8000    11.4000    25.4000 H             1 RES     
      72 H           13.7100    10.0000    25.4000 H             1 RES     
      73 O           11.0940    12.8500    25.4000 O             1 RES     
      74 C           11.0940    11.4000    25.4000 C             1 RES     
      75 H           10.0040    11.4000    25.4000 H             1 RES     
      76 C           11.0940    11.4000    26.8000 C             1 RES     
      77 H           12.1840    11.4000    26.8000 H             1 RES     
      78 H           11.0940    10.0000    26.8000 H             1 RES     
      79 H           40.9640    11.4000    10.0000 H             1 RES     
      80 H           10.0000    11.4000    26.8000 H             1 RES     
      81 O           39.8700    12.8500    23.0000 O             1 RES     
      82 C           39.8700    11.4000    23.0000 C             1 RES     
      83 H           38.7800    11.4000    23.0000 H             1 RES     
      84 C           39.8700    11.4000    24.4000 C             1 RES     
      85 H           40.9600    11.4000    24.4000 H             1 RES     
      86 H           39.8700    10.0000    24.4000 H             1 RES     
      87 O           37.2540    12.8500    24.4000 O             1 RES     
      88 C           37.2540    11.4000    24.4000 C             1 RES     
      89 H           36.1640    11.4000    24.4000 H             1 RES     
      90 C           37.2540    11.4000    25.8000 C             1 RES     
      91 H           38.3440    11.4000    25.8000 H             1 RES     
      92 H           37.2540    10.0000    25.8000 H             1 RES     
      93 O           34.6380    12.8500    25.8000 O             1 RES     
      94 C           34.6380    11.4000    25.8000 C             1 RES     
      95 H           33.5480    11.4000    25.8000 H             1 RES     
      96 C           34.6380    11.4000    27.2000 C             1 RES     
      97 H           35.7280    11.4000    27.2000 H             1 RES     
      98 H           34.6380    10.0000    27.2000 H             1 RES     
      99 O           32.0220    12.8500    27.2000 O             1 RES     
     100 C           32.0220    11.4000    27.2000 C             1 RES     
     101 H           30.9320    11.4000    27.2000 H             1 RES     
     102 C           32.0220    11.4000    28.6000 C             1 RES     
     103 H           33.1120    11.4000    28.6000 H             1 RES     
     104 H           32.0220    10.0000    28.6000 H             1 RES     
     105 O           29.4060    12.8500    28.6000 O             1 RES     
     106 C           29.4060    11.4000    28.6000 C             1 RES     
     107 H           28.3160    11.4000    28.6000 H             1 RES     
     108 C           29.4060    11.4000    30.0000 C             1 RES     
     109 H           30.4960    11.4000    30.0000 H             1 RES     
     110 H           29.4060    10.0000    30.0000 H             1 RES     
     111 O           26.7900    12.8500    30.0000 O             1 RES     
     112 C           26.7900    11.4000    30.0000 C             1 RES     
     113 H           25.7000    11.4000    30.0000 H             1 RES     
     114 C           26.7900    11.4000    31.4000 C             1 RES     
     115 H           27.8800    11.4000    31.4000 H             1 RES     
     116 H           26.7900    10.0000    31.4000 H             1 RES     
     117 O           24.1740    12.8500    31.4000 O             1 RES     
     118 C           24.1740    11.4000    31.4000 C             1 RES     
     119 H           23.0840    11.4000    31.4000 H             1 RES     
     120 C           24.1740    11.4000    32.8000 C             1 RES     
     121 H           25.2640    11.4000    32.8000 H             1 RES     
     122 H           24.1740    10.0000    32.8000 H             1 RES     
     123 O           21.5580    12.8500    32.8000 O             1 RES     
     124 C           21.5580    11.4000    32.8000 C             1 RES     
     125 H           20.4680    11.4000    32.8000 H             1 RES     
     126 C           21.5580    11.4000    34.2000 C             1 RES     
     127 H           22.6480    11.4000    34.2000 H             1 RES     
     128 H           21.5580    10.0000    34.2000 H             1 RES     
     129 O           18.9420    12.8500    34.2000 O             1 RES     
     130 C           18.9420    11.4000    34.2000 C             1 RES     
     131 H           17.8520    11.4000    34.2000 H             1 RES     
     132 C           18.9420    11.4000    35.6000 C             1 RES     
     133 H           20.0320    11.4000    35.6000 H             1 RES     
     134 H           18.9420    10.0000    35.6000 H             1 RES     
     135 O           16.3260    12.8500    35.6000 O             1 RES     
     136 C           16.3260    11.4000    35.6000 C             1 RES     
     137 H           15.2360    11.4000    35.6000 H             1 RES     
     138 C           16.3260    11.4000    37.0000 C             1 RES     
     139 H           17.4160    11.4000    37.0000 H             1 RES     
     140 H           16.3260    10.0000    37.0000 H             1 RES     
     141 O           13.7100    12.8500    37.0000 O             1 RES     
     142 C           13.7100    11.4000    37.0000 C             1 RES     
     143 H           12.6200    11.4000    37.0000 H             1 RES     
     144 C           13.7100    11.4000    38.4000 C             1 RES     
     145 H           14.8000    11.4000    38.4000 H             1 RES     
     146 H           13.7100    10.0000    38.4000 H             1 RES     
     147 O           11.0940    12.8500    38.4000 O             1 RES     
     148 C           11.0940    11.4000    38.4000 C             1 RES     
     149 H           10.0040    11.4000    38.4000 H             1 RES     
     150 C           11.0940    11.4000    39.8000 C             1 RES     
     151 H           12.1840    11.4000    39.8000 H             1 RES     
     152 H           11.0940    10.0000    39.8000 H             1 RES     
     153 H           40.9640    11.4000    23.0000 H             1 RES     
     154 H           10.0000    11.4000    39.8000 H             1 RES     
     155 O           39.8700    12.8500    36.0000 O             1 RES     
     156 C           39.8700    11.4000    36.0000 C             1 RES     
     157 H           38.7800    11.4000    36.0000 H             1 RES     
     158 C           39.8700    11.4000    37.4000 C             1 RES     
     159 H           40.9600    11.4000    37.4000 H             1 RES     
     160 H           39.8700    10.0000    37.4000 H             1 RES     
     161 O           37.2540    12.8500    37.4000 O             1 RES     
     162 C           37.2540    11.4000    37.4000 C             1 RES     
     163 H           36.1640    11.4000    37.4000 H             1 RES     
     164 C           37.2540    11.4000    38.8000 C             1 RES     
     165 H           38.3440    11.4000    38.8000 H             1 RES     
     166 H           37.2540    10.0000    38.8000 H             1 RES     
     167 O           34.6380    12.8500    38.8000 O             1 RES     
     168 C           34.6380    11.4000    38.8000 C             1 RES     
     169 H           33.5480    11.4000    38.8000 H             1 RES     
     170 C           34.6380    11.4000    40.2000 C             1 RES     
     171 H           35.7280    11.4000    40.2000 H             1 RES     
     172 H           34.6380    10.0000    40.2000 H             1 RES     
     173 O           32.0220    12.8500    40.2000 O             1 RES     
     174 C           32.0220    11.4000    40.2000 C             1 RES     
     175 H           30.9320    11.4000    40.2000 H             1 RES     
     176 C           32.0220    11.4000    41.6000 C             1 RES     
     177 H           33.1120    11.4000    41.6000 H             1 RES     
     178 H           32.0220    10.0000    41.6000 H             1 RES     
     179 O           29.4060    12.8500    41.6000 O             1 RES     
     180 C           29.4060    11.4000    41.6000 C             1 RES     
     181 H           28.3160    11.4000    41.6000 H             1 RES     
     182 C           29.4060    11.4000    43.0000 C             1 RES     
     183 H           30.4960    11.4000    43.0000 H             1 RES     
     184 H           29.4060    10.0000    43.0000 H             1 RES     
     185 O           26.7900    12.8500    43.0000 O             1 RES     
     186 C           26.7900    11.4000    43.0000 C             1 RES     
     187 H           25.7000    11.4000    43.0000 H             1 RES     
     188 C           26.7900    11.4000    44.4000 C             1 RES     
     189 H           27.8800    11.4000    44.4000 H             1 RES     
     190 H           26.7900    10.0000    44.4000 H             1 RES     
     191 O           24.1740    12.8500    44.4000 O             1 RES     
     192 H           24.1740    13.8500    44.4000 H             1 RES     
     193 C           24.1740    11.4000    44.4000 C             1 RES     
     194 H           23.0840    11.4000    44.4000 H             1 RES     
     195 C           24.1740    11.4000    45.8000 C             1 RES     
     196 H           25.2640    11.4000    45.8000 H             1 RES     
     197 H           24.1740    10.0000    45.8000 H             1 RES     
     198 O           21.5580    12.8500    45.8000 O             1 RES     
     199 H           21.5580    13.8500    45.8000 H             1 RES     
     200 C           21.5580    11.4000    45.8000 C             1 RES     
     201 H           20.4680    11.4000    45.8000 H             1 RES     
     202 C           21.5580    11.4000    47.2000 C             1 RES     
     203 H           22.6480    11.4000    47.2000 H             1 RES     
     204 H           21.5580    10.0000    47.2000 H             1 RES     
     205 O           18.9420    12.8500    47.2000 O             1 RES     
     206 H           18.9420    13.8500    47.2000 H             1 RES     
     207 C           18.9420    11.4000    47.2000 C             1 RES     
     208 H           17.8520    11.4000    47.2000 H             1 RES     
     209 C           18.9420    11.4000    48.6000 C             1 RES     
     210 H           20.0320    11.4000    48.6000 H             1 RES     
     211 H           18.9420    10.0000    48.6000 H             1 RES     
     212 O           16.3260    12.8500    48.6000 O             1 RES     
     213 H           16.3260    13.8500    48.6000 H             1 RES     
     214 C           16.3260    11.4000    48.6000 C             1 RES     
     215 H           15.2360    11.4000    48.6000 H             1 RES     
     216 C           16.3260    11.4000    50.0000 C             1 RES     
     217 H           17.4160    11.4000    50.0000 H             1 RES     
     218 H           16.3260    10.0000    50.0000 H             1 RES     
     219 O           13.7100    12.8500    50.0000 O             1 RES     
     220 H           13.7100    13.8500    50.0000 H             1 RES     
     221 C           13.7100    11.4000    50.0000 C             1 RES     
     222 H           12.6200    11.4000    50.0000 H             1 RES     
     223 C           13.7100    11.4000    51.4000 C             1 RES     
     224 H           14.8000    11.4000    51.4000 H             1 RES     
     225 H           13.7100    10.0000    51.4000 H             1 RES     
     226 O           11.0940    12.8500    51.4000 O             1 RES     
     227 H           11.0940    13.8500    51.4000 H             1 RES     
     228 C           11.0940    11.4000    51.4000 C             1 RES     
     229 H           10.0040    11.4000    51.4000 H             1 RES     
     230 C           11.0940    11.4000    52.8000 C             1 RES     
     231 H           12.1840    11.4000    52.8000 H             1 RES     
     232 H           11.0940    10.0000    52.8000 H             1 RES     
     233 H           40.9640    11.4000    36.0000 H             1 RES     
     234 H           10.0000    11.4000    52.8000 H             1 RES     
     235 C           22.7433    14.6891    25.3337 C             1 RES     
     236 C           24.2228    14.9755    25.5671 C             1 RES     
     237 C           25.0741    14.4427    24.4449 C             1 RES     
     238 C           21.8997    15.2363    26.4802 C             1 RES     
     239 C           20.4338    14.9635    26.2688 C             1 RES     
     240 H           22.5819    13.6081    25.2319 H             1 RES     
     241 H           22.4201    15.1351    24.3841 H             1 RES     
     242 H           24.5552    14.5031    26.4975 H             1 RES     
     243 H           24.3906    16.0556    25.6356 H             1 RES     
     244 H           24.5488    13.9300    23.6217 H             1 RES     
     245 H           22.0338    16.3201    26.5620 H             1 RES     
     246 H           22.1983    14.7676    27.4239 H             1 RES     
     247 H           20.1556    14.4231    25.3485 H             1 RES     
     248 C           17.5113    10.6891    28.1337 C             1 RES     
     249 C           18.9908    10.9755    28.3671 C             1 RES     
     250 C           19.8421    10.4427    27.2449 C             1 RES     
     251 C           16.6677    11.2363    29.2802 C             1 RES     
     252 C           15.2018    10.9635    29.0688 C             1 RES     
     253 H           17.3499     9.6081    28.0319 H             1 RES     
     254 H           17.1881    11.1351    27.1841 H             1 RES     
     255 H           19.3232    10.5031    29.2975 H             1 RES     
     256 H           19.1586    12.0556    28.4356 H             1 RES     
     257 H           19.3168     9.9300    26.4217 H             1 RES     
     258 H           16.8018    12.3201    29.3620 H             1 RES     
     259 H           16.9663    10.7676    30.2239 H             1 RES     
     260 H           14.9236    10.4231    28.1485 H             1 RES     
     261 C           12.2793    14.6891    30.9337 C             1 RES     
     262 C           13.7588    14.9755    31.1671 C             1 RES     
     263 C           14.6101    14.4427    30.0449 C             1 RES     
     264 C           11.4357    15.2363    32.0802 C             1 RES     
     265 C            9.9698    14.9635    31.8688 C             1 RES     
     266 H           12.1179    13.6081    30.8319 H             1 RES     
     267 H           11.9561    15.1351    29.9841 H             1 RES     
     268 H           14.0912    14.5031    32.0975 H             1 RES     
     269 H           13.9266    16.0556    31.2356 H             1 RES     
     270 H           14.0848    13.9300    29.2217 H             1 RES     
     271 H           11.5698    16.3201    32.1620 H             1 RES     
     272 H           11.7343    14.7676    33.0239 H             1 RES     
     273 H            9.6916    14.4231    30.9485 H             1 RES     
     274 C           38.4492    10.5352    30.1911 C             1 RES     
     275 C           39.9057    10.9398    29.9901 C             1 RES     
     276 C           40.7847     9.7420    29.7442 C             1 RES     
     277 C           37.5771    11.7616    30.4383 C             1 RES     
     278 C           36.1334    11.3833    30.6394 C             1 RES     
     279 H           38.3663     9.8395    31.0361 H             1 RES     
     280 H           38.0869     9.9886    29.3108 H             1 RES     
     281 H           40.2790    11.4562    30.8808 H             1 RES     
     282 H           39.9949    11.6078    29.1269 H             1 RES     
     283 H           40.2917     8.7554    29.7388 H             1 RES     
     284 H           37.6325    12.4414    29.5815 H             1 RES     
     285 H           37.9166    12.2899    31.3355 H             1 RES     
     286 H           35.8880    10.3094    30.5864 H             1 RES     
     287 C           33.4173    15.0109    32.7200 C             1 RES     
     288 C           31.9803    14.7245    33.1428 C             1 RES     
     289 C           30.9911    15.2573    32.1402 C             1 RES     
     290 C           34.4020    14.4637    33.7479 C             1 RES     
     291 C           35.8282    14.7365    33.3487 C             1 RES     
     292 H           33.5641    16.0919    32.5983 H             1 RES     
     293 H           33.6149    14.5649    31.7367 H             1 RES     
     294 H           31.7711    15.1969    34.1084 H             1 RES     
     295 H           31.8228    13.6444    33.2325 H             1 RES     
     296 H           31.4055    15.7700    31.2559 H             1 RES     
     297 H           34.2796    13.3799    33.8463 H             1 RES     
     298 H           34.2279    14.9324    34.7222 H             1 RES     
     299 H           35.9851    15.2769    32.4001 H             1 RES     
     300 C           27.9753    10.6891    35.5337 C             1 RES     
     301 C           29.4548    10.9755    35.7671 C             1 RES     
     302 C           30.3061    10.4427    34.6449 C             1 RES     
     303 C           27.1317    11.2363    36.6802 C             1 RES     
     304 C           25.6658    10.9635    36.4688 C             1 RES     
     305 H           27.8139     9.6081    35.4319 H             1 RES     
     306 H           27.6521    11.1351    34.5841 H             1 RES     
     307 H           29.7872    10.5031    36.6975 H             1 RES     
     308 H           29.6226    12.0556    35.8356 H             1 RES     
     309 H           29.7808     9.9300    33.8217 H             1 RES     
     310 H           27.2658    12.3201    36.7620 H             1 RES     
     311 H           27.4303    10.7676    37.6239 H             1 RES     
     312 H           25.3876    10.4231    35.5485 H             1 RES     
@<TRIPOS>BOND
       1        1        2 1
       2        1        3 1
       3        3        4 1
       4        3        5 1
       5        3       79 1
       6        5        6 1
       7        5        7 1
       8        5       10 1
       9        8        9 1
      10        8       10 1
      11       10       11 1
      12       10       12 1
      13       12       13 1
      14       12       14 1
      15       12       17 1
      16       15       16 1
      17       15       17 1
      18       17       18 1
      19       17       19 1
      20       19       20 1
      21       19       21 1
      22       19       24 1
      23       22       23 1
      24       22       24 1
      25       24       25 1
      26       24       26 1
      27       26       27 1
      28       26       28 1
      29       26       31 1
      30       29       30 1
      31       29       31 1
      32       31       32 1
      33       31       33 1
      34       33       34 1
      35       33       35 1
      36       33       38 1
      37       36       37 1
      38       36       38 1
      39       38       39 1
      40       38       40 1
      41       40       41 1
      42       40       42 1
      43       40       44 1
      44       43       44 1
      45       43      237 1
      46       44       45 1
      47       44       46 1
      48       46       47 1
      49       46       48 1
      50       46       50 1
      51       49       50 1
      52       49      237 1
      53       50       51 1
      54       50       52 1
      55       52       53 1
      56       52       54 1
      57       52       56 1
      58       55       56 1
      59       55      250 1
      60       56       57 1
      61       56       58 1
      62       58       59 1
      63       58       60 1
      64       58       62 1
      65       61       62 1
      66       61      250 1
      67       62       63 1
      68       62       64 1
      69       64       65 1
      70       64       66 1
      71       64       68 1
      72       67       68 1
      73       67      263 1
      74       68       69 1
      75       68       70 1
      76       70       71 1
      77       70       72 1
      78       70       74 1
      79       73       74 1
      80       73      263 1
      81       74       75 1
      82       74       76 1
      83       76       77 1
      84       76       78 1
      85       76       80 1
      86       81       82 1
      87       81      276 1
      88       82       83 1
      89       82       84 1
      90       82      153 1
      91       84       85 1
      92       84       86 1
      93       84       88 1
      94       87       88 1
      95       87      276 1
      96       88       89 1
      97       88       90 1
      98       90       91 1
      99       90       92 1
     100       90       94 1
     101       93       94 1
     102       93      289 1
     103       94       95 1
     104       94       96 1
     105       96       97 1
     106       96       98 1
     107       96      100 1
     108       99      100 1
     109       99      289 1
     110      100      101 1
     111      100      102 1
     112      102      103 1
     113      102      104 1
     114      102      106 1
     115      105      106 1
     116      105      302 1
     117      106      107 1
     118      106      108 1
     119      108      109 1
     120      108      110 1
     121      108      112 1
     122      111      112 1
     123      111      302 1
     124      112      113 1
     125      112      114 1
     126      114      115 1
     127      114      116 1
     128      114      118 1
     129      117      118 1
     130      117      239 1
     131      118      119 1
     132      118      120 1
     133      120      121 1
     134      120      122 1
     135      120      124 1
     136      123      124 1
     137      123      239 1
     138      124      125 1
     139      124      126 1
     140      126      127 1
     141      126      128 1
     142      126      130 1
     143      129      130 1
     144      129      252 1
     145      130      131 1
     146      130      132 1
     147      132      133 1
     148      132      134 1
     149      132      136 1
     150      135      136 1
     151      135      252 1
     152      136      137 1
     153      136      138 1
     154      138      139 1
     155      138      140 1
     156      138      142 1
     157      141      142 1
     158      141      265 1
     159      142      143 1
     160      142      144 1
     161      144      145 1
     162      144      146 1
     163      144      148 1
     164      147      148 1
     165      147      265 1
     166      148      149 1
     167      148      150 1
     168      150      151 1
     169      150      152 1
     170      150      154 1
     171      155      156 1
     172      155      278 1
     173      156      157 1
     174      156      158 1
     175      156      233 1
     176      158      159 1
     177      158      160 1
     178      158      162 1
     179      161      162 1
     180      161      278 1
     181      162      163 1
     182      162      164 1
     183      164      165 1
     184      164      166 1
     185      164      168 1
     186      167      168 1
     187      167      291 1
     188      168      169 1
     189      168      170 1
     190      170      171 1
     191      170      172 1
     192      170      174 1
     193      173      174 1
     194      173      291 1
     195      174      175 1
     196      174      176 1
     197      176      177 1
     198      176      178 1
     199      176      180 1
     200      179      180 1
     201      179      304 1
     202      180      181 1
     203      180      182 1
     204      182      183 1
     205      182      184 1
     206      182      186 1
     207      185      186 1
     208      185      304 1
     209      186      187 1
     210      186      188 1
     211      188      189 1
     212      188      190 1
     213      188      193 1
     214      191      192 1
     215      191      193 1
     216      193      194 1
     217      193      195 1
     218      195      196 1
     219      195      197 1
     220      195      200 1
     221      198      199 1
     222      198      200 1
     223      200      201 1
     224      200      202 1
     225      202      203 1
     226      202      204 1
     227      202      207 1
     228      205      206 1
     229      205      207 1
     230      207      208 1
     231      207      209 1
     232      209      210 1
     233      209      211 1
     234      209      214 1
     235      212      213 1
     236      212      214 1
     237      214      215 1
     238      214      216 1
     239      216      217 1
     240      216      218 1
     241      216      221 1
     242      219      220 1
     243      219      221 1
     244      221      222 1
     245      221      223 1
     246      223      224 1
     247      223      225 1
     248      223      228 1
     249      226      227 1
     250      226      228 1
     251      228      229 1
     252      228      230 1
     253      230      231 1
     254      230      232 1
     255      230      234 1
     256      235      236 1
     257      235      238 1
     258      235      240 1
     259      235      241 1
     260      236      237 1
     261      236      242 1
     262      236      243 1
     263      237      244 1
     264      238      239 1
     265      238      245 1
     266      238      246 1
     267      239      247 1
     268      248      249 1
     269      248      251 1
     270      248      253 1
     271      248      254 1
     272      249      250 1
     273      249      255 1
     274      249      256 1
     275      250      257 1
     276      251      252 1
     277      251      258 1
     278      251      259 1
     279      252      260 1
     280      261      262 1
     281      261      264 1
     282      261      266 1
     283      261      267 1
     284      262      263 1
     285      262      268 1
     286      262      269 1
     287      263      270 1
     288      264      265 1
     289      264      271 1
     290      264      272 1
     291      265      273 1
     292      274      275 1
     293      274      277 1
     294      274      279 1
     295      274      280 1
     296      275      276 1
     297      275      281 1
     298      275      282 1
     299      276      283 1
     300      277      278 1
     301      277      284 1
     302      277      285 1
     303      278      286 1
     304      287      288 1
     305      287      290 1
     306      287      292 1
     307      287      293 1
     308      288      289 1
     309      288      294 1
     310      288      295 1
     311      289      296 1
     312      290      291 1
     313      290      297 1
     314      290      298 1
     315      291      299 1
     316      300      301 1
     317      300      303 1
     318      300      305 1
     319      300      306 1
     320      301      302 1
     321      301      307 1
     322      301      308 1
     323      302      309 1
     324      303      304 1
     325      303      310 1
     326      303      311 1
     327      304      312 1
@<TRIPOS>SUBSTRUCTURE
       1 RES             1 RESIDUE    0 **** ROOT      0
