@<TRIPOS>MOLECULE
RES
86 85 1 0 1
SMALL
NO_CHARGES
@<TRIPOS>CRYSIN
   61.6831    12.9001     6.0000    90.0000    90.0000    90.0000 1 1
@<TRIPOS>ATOM
       1 C           -4.6693     1.5738     0.0000 C             1 RES     
       2 C           -2.9391     1.6155     0.0001 C             1 RES     
       3 H           -4.6901     2.8245     0.0000 H             1 RES     
       4 H           -4.6484     0.3648     0.0000 H             1 RES     
       5 H           -2.8975     0.4482     0.0001 H             1 RES     
       6 H           -2.9391     4.1794     0.0001 H             1 RES     
       7 O           -2.9600     3.1163     0.0001 O             1 RES     
       8 C            0.1511     1.6773    -0.0001 C             1 RES     
       9 C            1.8817     1.6869    -0.0000 C             1 RES     
      10 H            0.1534     2.9281    -0.0001 H             1 RES     
      11 H            0.1496     0.4681    -0.0001 H             1 RES     
      12 H            1.9017     0.5191    -0.0000 H             1 RES     
      13 H            1.9292     4.2504    -0.0000 H             1 RES     
      14 O            1.8886     3.1879    -0.0000 O             1 RES     
      15 C            4.9725     1.6915    -0.0002 C             1 RES     
      16 C            6.7031     1.6691    -0.0001 C             1 RES     
      17 H            4.9980     2.9421    -0.0002 H             1 RES     
      18 H            4.9486     0.4825    -0.0002 H             1 RES     
      19 H            6.7014     0.5010    -0.0001 H             1 RES     
      20 H            6.7980     4.2312    -0.0002 H             1 RES     
      21 O            6.7378     3.1696    -0.0002 O             1 RES     
      22 C            9.7934     1.6164    -0.0004 C             1 RES     
      23 C           11.5233     1.5620    -0.0003 C             1 RES     
      24 H            9.8421     2.8663    -0.0004 H             1 RES     
      25 H            9.7471     0.4081    -0.0004 H             1 RES     
      26 H           11.5000     0.3942    -0.0003 H             1 RES     
      27 H           11.6656     4.1219    -0.0003 H             1 RES     
      28 O           11.5857     3.0616    -0.0003 O             1 RES     
      29 C           14.6121     1.4521    -0.0005 C             1 RES     
      30 C           16.3406     1.3656    -0.0005 C             1 RES     
      31 H           14.6839     2.7009    -0.0006 H             1 RES     
      32 H           14.5434     0.2448    -0.0005 H             1 RES     
      33 H           16.2957     0.1984    -0.0004 H             1 RES     
      34 H           16.5304     3.9225    -0.0005 H             1 RES     
      35 O           16.4308     2.8638    -0.0005 O             1 RES     
      36 C           19.4269     1.1985    -0.0007 C             1 RES     
      37 C           21.1535     1.0801    -0.0007 C             1 RES     
      38 H           19.5218     2.4458    -0.0008 H             1 RES     
      39 H           19.3359    -0.0072    -0.0007 H             1 RES     
      40 H           21.0870    -0.0861    -0.0006 H             1 RES     
      41 H           21.3906     3.6330    -0.0007 H             1 RES     
      42 O           21.2715     2.5764    -0.0007 O             1 RES     
      43 C           24.2362     0.8559    -0.0009 C             1 RES     
      44 C           25.9603     0.7055    -0.0009 C             1 RES     
      45 H           24.3542     2.1012    -0.0010 H             1 RES     
      46 H           24.1229    -0.3480    -0.0009 H             1 RES     
      47 H           25.8722    -0.4593    -0.0008 H             1 RES     
      48 H           26.2446     3.2535    -0.0009 H             1 RES     
      49 O           26.1060     2.1993    -0.0009 O             1 RES     
      50 C           29.0383     0.4242    -0.0011 C             1 RES     
      51 C           30.7594     0.2419    -0.0011 C             1 RES     
      52 H           29.1793     1.6671    -0.0012 H             1 RES     
      53 H           28.9027    -0.7773    -0.0011 H             1 RES     
      54 H           30.6497    -0.9210    -0.0010 H             1 RES     
      55 H           31.0908     2.7843    -0.0012 H             1 RES     
      56 O           30.9326     1.7328    -0.0011 O             1 RES     
      57 C           33.8316    -0.0963    -0.0014 C             1 RES     
      58 C           35.5490    -0.3104    -0.0013 C             1 RES     
      59 H           33.9956     1.1438    -0.0014 H             1 RES     
      60 H           33.6738    -1.2951    -0.0013 H             1 RES     
      61 H           35.4178    -1.4711    -0.0013 H             1 RES     
      62 H           35.9274     2.2254    -0.0014 H             1 RES     
      63 O           35.7498     1.1770    -0.0014 O             1 RES     
      64 C           38.6144    -0.7055    -0.0016 C             1 RES     
      65 C           40.3276    -0.9514    -0.0016 C             1 RES     
      66 H           38.8014     0.5314    -0.0017 H             1 RES     
      67 H           38.4345    -1.9012    -0.0016 H             1 RES     
      68 H           40.1749    -2.1094    -0.0015 H             1 RES     
      69 H           40.7529     1.5770    -0.0017 H             1 RES     
      70 O           40.5559     0.5321    -0.0017 O             1 RES     
      71 C           43.3851    -1.4031    -0.0019 C             1 RES     
      72 C           45.0934    -1.6807    -0.0019 C             1 RES     
      73 H           43.5950    -0.1699    -0.0020 H             1 RES     
      74 H           43.1831    -2.5953    -0.0018 H             1 RES     
      75 H           44.9194    -2.8357    -0.0018 H             1 RES     
      76 H           45.5655     0.8394    -0.0020 H             1 RES     
      77 O           45.3492    -0.2017    -0.0019 O             1 RES     
      78 C           48.1421    -2.1889    -0.0022 C             1 RES     
      79 C           49.8450    -2.4981    -0.0021 C             1 RES     
      80 H           48.3748    -0.9599    -0.0022 H             1 RES     
      81 H           47.9180    -3.3772    -0.0021 H             1 RES     
      82 H           49.6496    -3.6497    -0.0021 H             1 RES     
      83 H           50.3637     0.0128    -0.0023 H             1 RES     
      84 O           50.1281    -1.0241    -0.0022 O             1 RES     
      85 H           -5.7625     1.5317     0.0001 H             1 RES     
      86 H           50.9206    -2.6980    -0.0023 H             1 RES     
@<TRIPOS>BOND
       1        1        2 1
       2        1        3 1
       3        1        4 1
       4        1       85 1
       5        2        5 1
       6        2        7 1
       7        2        8 1
       8        6        7 1
       9        8        9 1
      10        8       10 1
      11        8       11 1
      12        9       12 1
      13        9       14 1
      14        9       15 1
      15       13       14 1
      16       15       16 1
      17       15       17 1
      18       15       18 1
      19       16       19 1
      20       16       21 1
      21       16       22 1
      22       20       21 1
      23       22       23 1
      24       22       24 1
      25       22       25 1
      26       23       26 1
      27       23       28 1
      28       23       29 1
      29       27       28 1
      30       29       30 1
      31       29       31 1
      32       29       32 1
      33       30       33 1
      34       30       35 1
      35       30       36 1
      36       34       35 1
      37       36       37 1
      38       36       38 1
      39       36       39 1
      40       37       40 1
      41       37       42 1
      42       37       43 1
      43       41       42 1
      44       43       44 1
      45       43       45 1
      46       43       46 1
      47       44       47 1
      48       44       49 1
      49       44       50 1
      50       48       49 1
      51       50       51 1
      52       50       52 1
      53       50       53 1
      54       51       54 1
      55       51       56 1
      56       51       57 1
      57       55       56 1
      58       57       58 1
      59       57       59 1
      60       57       60 1
      61       58       61 1
      62       58       63 1
      63       58       64 1
      64       62       63 1
      65       64       65 1
      66       64       66 1
      67       64       67 1
      68       65       68 1
      69       65       70 1
      70       65       71 1
      71       69       70 1
      72       71       72 1
      73       71       73 1
      74       71       74 1
      75       72       75 1
      76       72       77 1
      77       72       78 1
      78       76       77 1
      79       78       79 1
      80       78       80 1
      81       78       81 1
      82       79       82 1
      83       79       84 1
      84       79       86 1
      85       83       84 1
@<TRIPOS>SUBSTRUCTURE
       1 RES             1 RESIDUE    0 **** ROOT      0
