@<TRIPOS>MOLECULE
RES
1763 1817 1 0 1
SMALL
NO_CHARGES
@<TRIPOS>CRYSIN
  246.2706    86.0310   322.4114    90.0000    90.0000    90.0000 1 1
@<TRIPOS>ATOM
       1 C           32.9851   143.7431    12.0099 C             1 RES     
       2 C           34.8341   145.3332    11.9257 C             1 RES     
       3 C           39.4995   145.6081    11.9258 C             1 RES     
       4 C           34.5828   140.3511    11.9258 C             1 RES     
       5 C           33.0453   141.7112    11.9258 C             1 RES     
       6 C           36.7708   144.0322    11.9257 C             1 RES     
       7 H           34.8893   146.4017    11.9257 H             1 RES     
       8 H           32.0141   144.8609    11.9258 H             1 RES     
       9 C           36.6968   141.8294    11.9257 C             1 RES     
      10 H           34.5219   139.2828    11.9258 H             1 RES     
      11 O           50.7846   140.3375    13.6693 O             1 RES     
      12 H           37.6374   141.3192    11.9257 H             1 RES     
      13 C           42.1193   144.4196    11.9871 C             1 RES     
      14 H           39.5037   146.2258    11.0522 H             1 RES     
      15 H           39.5029   146.1109    12.8703 H             1 RES     
      16 C           44.1498   145.9752    11.9258 C             1 RES     
      17 C           46.3426   141.5976    12.8325 C             1 RES     
      18 C           41.9715   141.3983    11.9258 C             1 RES     
      19 C           46.2970   144.7534    11.8839 C             1 RES     
      20 C           44.0572   140.3867    11.8072 C             1 RES     
      21 H           44.2585   139.1526    11.6638 H             1 RES     
      22 H           44.1784   147.0448    11.9258 H             1 RES     
      23 H           47.1393   144.4387    11.4817 H             1 RES     
      24 H           41.0055   140.9380    11.9258 H             1 RES     
      25 O           31.1227   140.8561    12.7378 O             1 RES     
      26 C           29.3212   142.1610    13.5747 C             1 RES     
      27 C           26.5577   141.1917    13.4540 C             1 RES     
      28 H           29.2615   142.6025    14.9749 H             1 RES     
      29 H           28.8329   142.4823    12.1244 H             1 RES     
      30 C           54.0477   145.9270    15.8682 C             1 RES     
      31 O           24.2816   142.6104    11.6616 O             1 RES     
      32 H           57.4170   147.2567    16.4092 H             1 RES     
      33 H           56.6803   147.3058    17.8779 H             1 RES     
      34 H           59.4745   135.9869    20.3809 H             1 RES     
      35 C           51.8291   141.5011    13.4645 C             1 RES     
      36 C           54.5350   140.0755    14.0824 C             1 RES     
      37 H           50.8141   142.3634    13.9609 H             1 RES     
      38 O           52.0849   142.1134    11.8713 O             1 RES     
      39 H           52.0147   142.6186    10.8058 H             1 RES     
      40 N           55.9114   141.2567    13.9517 N             1 RES     
      41 H           54.1899   139.6266    15.1313 H             1 RES     
      42 H           55.0464   139.1830    12.5038 H             1 RES     
      43 C           57.7190   140.6375    18.1705 C             1 RES     
      44 H           66.4917   137.9150    17.5687 H             1 RES     
      45 C           57.6601   143.0034    17.8299 C             1 RES     
      46 H           60.5082   135.8544    18.5970 H             1 RES     
      47 C           59.9407   139.0942    19.2950 C             1 RES     
      48 C           59.8144   144.9017    18.6029 C             1 RES     
      49 H           65.1236   148.8613    20.0213 H             1 RES     
      50 C           56.7455   146.6813    17.0116 C             1 RES     
      51 C           61.6701   143.4139    19.6108 C             1 RES     
      52 H           53.5017   146.8150    15.6270 H             1 RES     
      53 H           61.2048   136.1584    20.2088 H             1 RES     
      54 C           61.9343   140.4339    20.0584 C             1 RES     
      55 C           64.1964   144.7693    19.3247 C             1 RES     
      56 C           21.9059   142.9980    11.2515 C             1 RES     
      57 H           54.1864   145.3421    14.9831 H             1 RES     
      58 C           60.2585   136.3373    19.7426 C             1 RES     
      59 N           66.4284   139.2875    17.5687 N             1 RES     
      60 H           53.5010   145.3572    16.5903 H             1 RES     
      61 H           26.0951   141.3690    12.2300 H             1 RES     
      62 H           59.8198   145.9656    18.4888 H             1 RES     
      63 C           65.4855   148.2455    20.8180 C             1 RES     
      64 H           64.9626   144.1729    18.5333 H             1 RES     
      65 H           64.5727   144.9890    19.5779 H             1 RES     
      66 H           65.2043   148.6751    21.7568 H             1 RES     
      67 H           66.5520   148.1792    20.7613 H             1 RES     
      68 H           27.1357   139.9189    12.3005 H             1 RES     
      69 H           22.0294   142.8005    12.8610 H             1 RES     
      70 H           22.4882   143.5796    10.0000 H             1 RES     
      71 C           82.1012   139.2046    17.7885 C             1 RES     
      72 C           84.0395   140.6608    17.5117 C             1 RES     
      73 C           88.7047   140.6226    17.2354 C             1 RES     
      74 C           83.4716   135.7135    17.8062 C             1 RES     
      75 C           82.0267   137.1716    17.8157 C             1 RES     
      76 C           85.8859   139.2349    17.4766 C             1 RES     
      77 H           84.1627   141.7217    17.4485 H             1 RES     
      78 H           81.2002   140.3788    17.6961 H             1 RES     
      79 C           85.6718   137.0451    17.6047 C             1 RES     
      80 H           83.3428   134.6532    17.8697 H             1 RES     
      81 O           99.7146   134.7077    18.6388 O             1 RES     
      82 H           86.5763   136.4738    17.5808 H             1 RES     
      83 C           91.2424   139.2664    17.2168 C             1 RES     
      84 H           88.6963   141.1919    16.3296 H             1 RES     
      85 H           88.7963   141.1729    18.1484 H             1 RES     
      86 C           93.3607   140.6773    16.9546 C             1 RES     
      87 C           95.3200   136.2165    17.9822 C             1 RES     
      88 C           90.8989   136.2627    17.3340 C             1 RES     
      89 C           95.4193   139.3141    16.8615 C             1 RES     
      90 C           92.9051   135.1090    17.1560 C             1 RES     
      91 H           93.0185   133.8584    17.0713 H             1 RES     
      92 H           93.4574   141.7411    16.8929 H             1 RES     
      93 H           96.2144   138.9231    16.4312 H             1 RES     
      94 H           89.9073   135.8687    17.4139 H             1 RES     
      95 O           80.1052   136.4908    18.7808 O             1 RES     
      96 C           78.4435   137.9554    19.6424 C             1 RES     
      97 C           75.6216   137.1681    19.7311 C             1 RES     
      98 H           78.4955   138.4728    21.0166 H             1 RES     
      99 H           77.8913   138.2321    18.2059 H             1 RES     
     100 C          103.4524   140.1741    20.3337 C             1 RES     
     101 O           73.3380   138.6399    17.9919 O             1 RES     
     102 H          106.9258   141.3020    20.6097 H             1 RES     
     103 H          106.2824   141.4773    22.1123 H             1 RES     
     104 H          108.4933   130.1438    25.0880 H             1 RES     
     105 C          100.8171   135.7865    18.3107 C             1 RES     
     106 C          103.4586   134.2175    18.8555 C             1 RES     
     107 H           99.8904   136.7396    18.8138 H             1 RES     
     108 O          101.0161   136.2958    16.6738 O             1 RES     
     109 H          100.9150   136.7480    15.5871 H             1 RES     
     110 N          104.8972   135.2954    18.5818 N             1 RES     
     111 H          103.1486   133.8483    19.9457 H             1 RES     
     112 H          103.8172   133.2111    17.3035 H             1 RES     
     113 C          106.9095   134.7790    22.7210 C             1 RES     
     114 H          115.4394   131.4479    21.7837 H             1 RES     
     115 C          106.9813   137.1224    22.2517 C             1 RES     
     116 H          109.4085   129.8490    23.2593 H             1 RES     
     117 C          109.0912   133.1517    23.8046 C             1 RES     
     118 C          109.2944   138.9103    22.7949 C             1 RES     
     119 H          114.9202   142.5748    23.6891 H             1 RES     
     120 C          106.2560   140.8052    21.2802 C             1 RES     
     121 C          111.1082   137.3566    23.7796 C             1 RES     
     122 H          102.9507   141.0827    20.0738 H             1 RES     
     123 H          110.2177   130.1899    24.8100 H             1 RES     
     124 C          111.2080   134.3933    24.3787 C             1 RES     
     125 C          113.6943   138.5231    23.2768 C             1 RES     
     126 C           70.9716   139.1635    17.6941 C             1 RES     
     127 H          103.5006   139.5356    19.4766 H             1 RES     
     128 C          109.2587   130.4070    24.3881 C             1 RES     
     129 N          115.4638   132.8197    21.7100 N             1 RES     
     130 H          102.9144   139.6808    21.1162 H             1 RES     
     131 H           75.0992   137.3115    18.5269 H             1 RES     
     132 H          109.3609   139.9640    22.6210 H             1 RES     
     133 C          115.2889   141.9789    24.4977 C             1 RES     
     134 H          114.3724   137.8361    22.4786 H             1 RES     
     135 H          114.0982   138.7301    23.4958 H             1 RES     
     136 H          115.0920   142.4750    25.4251 H             1 RES     
     137 H          116.3437   141.8385    24.3853 H             1 RES     
     138 H           76.0476   135.8007    18.6206 H             1 RES     
     139 H          105.0417   133.5573    18.6626 H             1 RES     
     140 H           71.1778   139.0429    19.3028 H             1 RES     
     141 H           71.5143   139.6383    16.3813 H             1 RES     
     142 C          131.0847   131.7002    21.0572 C             1 RES     
     143 C          133.0920   133.0070    20.5909 C             1 RES     
     144 C          137.7206   132.6423    20.0566 C             1 RES     
     145 C          132.2284   128.1311    21.1945 C             1 RES     
     146 C          130.8825   129.6810    21.2028 C             1 RES     
     147 C          134.8384   131.4609    20.5328 C             1 RES     
     148 H          133.2785   134.0525    20.4613 H             1 RES     
     149 H          130.2565   132.9256    20.9494 H             1 RES     
     150 C          134.4931   129.3000    20.7957 C             1 RES     
     151 H          132.0363   127.0865    21.3247 H             1 RES     
     152 O          148.3949   126.0860    21.1726 O             1 RES     
     153 H          135.3563   128.6691    20.7534 H             1 RES     
     154 C          140.1610   131.1203    19.9725 C             1 RES     
     155 H          137.6946   133.1626    19.1221 H             1 RES     
     156 H          137.9012   133.2325    20.9307 H             1 RES     
     157 C          142.3456   132.3706    19.5133 C             1 RES     
     158 C          144.0742   127.8488    20.6789 C             1 RES     
     159 C          139.6343   128.1566    20.2775 C             1 RES     
     160 C          144.3039   130.8698    19.3820 C             1 RES     
     161 C          141.5488   126.8636    20.0528 C             1 RES     
     162 H          141.5769   125.6054    20.0324 H             1 RES     
     163 H          142.5060   133.4209    19.3864 H             1 RES     
     164 H          145.0455   130.4044    18.9305 H             1 RES     
     165 H          138.6261   127.8345    20.4348 H             1 RES     
     166 O          128.9823   129.1819    22.3106 O             1 RES     
     167 C          127.4716   130.7975    23.1800 C             1 RES     
     168 C          124.6155   130.2066    23.4706 C             1 RES     
     169 H          127.6381   131.3817    24.5179 H             1 RES     
     170 H          126.8537   131.0348    21.7634 H             1 RES     
     171 C          152.5678   131.3715    22.3456 C             1 RES     
     172 O          122.3309   131.7344    21.7818 O             1 RES     
     173 H          156.1163   132.2775    22.3630 H             1 RES     
     174 H          155.5759   132.5740    23.8869 H             1 RES     
     175 H          157.2330   121.2899    27.3672 H             1 RES     
     176 C          149.5425   127.0699    20.7232 C             1 RES     
     177 C          152.1063   125.3585    21.2069 C             1 RES     
     178 H          148.7101   128.1080    21.2229 H             1 RES     
     179 O          149.6759   127.4782    19.0516 O             1 RES     
     180 H          149.5393   127.8784    17.9486 H             1 RES     
     181 N          153.5919   126.3219    20.7929 N             1 RES     
     182 H          151.8388   125.0686    22.3317 H             1 RES     
     183 H          152.3071   124.2503    19.6963 H             1 RES     
     184 C          155.8098   125.8900    24.8356 C             1 RES     
     185 H          164.0391   121.9512    23.6115 H             1 RES     
     186 C          156.0029   128.1955    24.2318 C             1 RES     
     187 H          158.0171   120.8390    25.5098 H             1 RES     
     188 C          157.9440   124.1795    25.8852 C             1 RES     
     189 C          158.4535   129.8507    24.5434 C             1 RES     
     190 H          164.3446   133.1726    24.9139 H             1 RES     
     191 C          155.4573   131.8625    23.0967 C             1 RES     
     192 C          160.2198   128.2330    25.5109 C             1 RES     
     193 H          152.1105   132.2968    22.0634 H             1 RES     
     194 H          158.9372   121.2059    26.9911 H             1 RES     
     195 C          160.1661   125.3051    26.2692 C             1 RES     
     196 C          162.8405   129.1959    24.7994 C             1 RES     
     197 C          119.9893   132.3988    21.5879 C             1 RES     
     198 H          152.5241   130.6871    21.5243 H             1 RES     
     199 C          157.9706   121.4642    26.6120 C             1 RES     
     200 N          164.1465   123.3125    23.4595 N             1 RES     
     201 H          152.0470   130.9571    23.1834 H             1 RES     
     202 H          124.0327   130.3211    22.2913 H             1 RES     
     203 H          158.5764   130.8870    24.3070 H             1 RES     
     204 C          164.7220   132.5965    25.7328 C             1 RES     
     205 H          163.4248   128.4241    24.0045 H             1 RES     
     206 H          163.2691   129.3866    24.9835 H             1 RES     
     207 H          164.6127   133.1527    26.6404 H             1 RES     
     208 H          165.7572   132.3802    25.5696 H             1 RES     
     209 H          124.8867   128.7573    22.4167 H             1 RES     
     210 H          153.6299   124.5846    20.9631 H             1 RES     
     211 H          120.2827   132.3493    23.1867 H             1 RES     
     212 H          120.4821   132.7667    20.2221 H             1 RES     
     213 C          179.5977   121.1178    21.9980 C             1 RES     
     214 C          181.6530   122.2611    21.3474 C             1 RES     
     215 C          186.2088   121.5602    20.5764 C             1 RES     
     216 C          180.5177   117.4924    22.2718 C             1 RES     
     217 C          179.2762   119.1271    22.2681 C             1 RES     
     218 C          183.2907   120.6008    21.2788 C             1 RES     
     219 H          181.8977   123.2836    21.1489 H             1 RES     
     220 H          178.8444   122.3886    21.8679 H             1 RES     
     221 C          182.8246   118.4846    21.6817 C             1 RES     
     222 H          180.2675   116.4713    22.4711 H             1 RES     
     223 O          196.4910   114.3721    21.4608 O             1 RES     
     224 H          183.6417   117.7960    21.6268 H             1 RES     
     225 C          188.5380   119.8760    20.4417 C             1 RES     
     226 H          186.1605   122.0312    19.6170 H             1 RES     
     227 H          186.4784   122.1819    21.4044 H             1 RES     
     228 C          190.7666   120.9515    19.7914 C             1 RES     
     229 C          192.2697   116.3916    21.1111 C             1 RES     
     230 C          187.8425   116.9742    20.9420 C             1 RES     
     231 C          192.6140   119.3182    19.6355 C             1 RES     
     232 C          189.6539   115.5460    20.6837 C             1 RES     
     233 H          189.6005   114.2895    20.7325 H             1 RES     
     234 H          190.9858   121.9806    19.5969 H             1 RES     
     235 H          193.2962   118.7812    19.1701 H             1 RES     
     236 H          186.8269   116.7291    21.1733 H             1 RES     
     237 O          177.4174   118.8151    23.5068 O             1 RES     
     238 C          176.0672   120.5716    24.3670 C             1 RES     
     239 C          173.2015   120.1891    24.8497 C             1 RES     
     240 H          176.3499   121.2127    25.6585 H             1 RES     
     241 H          175.3824   120.7749    22.9760 H             1 RES     
     242 C          201.0547   119.4209    22.0992 C             1 RES     
     243 O          170.9226   121.7756    23.2080 O             1 RES     
     244 H          204.6484   120.0871    21.8671 H             1 RES     
     245 H          204.2197   120.4987    23.3998 H             1 RES     
     246 H          205.3582   109.3273    27.4114 H             1 RES     
     247 C          197.6701   115.2521    20.8932 C             1 RES     
     248 C          200.1439   113.4007    21.3283 C             1 RES     
     249 H          196.9368   116.3683    21.3795 H             1 RES     
     250 O          197.7296   115.5622    19.1965 O             1 RES     
     251 H          197.5535   115.9122    18.0821 H             1 RES     
     252 N          201.6606   114.2396    20.7783 N             1 RES     
     253 H          199.9258   113.1889    22.4808 H             1 RES     
     254 H          200.1834   112.2039    19.8736 H             1 RES     
     255 C          204.0831   113.8731    24.7085 C             1 RES     
     256 H          211.9571   109.3338    23.2496 H             1 RES     
     257 C          204.3864   116.1256    23.9661 C             1 RES     
     258 H          206.0000   108.7281    25.5413 H             1 RES     
     259 C          206.1625   112.0811    25.7317 C             1 RES     
     260 C          206.9517   117.6272    24.0465 C             1 RES     
     261 H          213.0543   120.5624    23.8994 H             1 RES     
     262 C          204.0091   119.7562    22.6588 C             1 RES     
     263 C          208.6658   115.9480    25.0032 C             1 RES     
     264 H          200.6413   120.3586    21.7915 H             1 RES     
     265 H          207.0282   109.1098    26.9458 H             1 RES     
     266 C          208.4707   113.0741    25.9269 C             1 RES     
     267 C          211.2956   116.6947    24.0932 C             1 RES     
     268 C          168.6207   122.5840    23.1083 C             1 RES     
     269 H          200.9187   118.6988    21.3215 H             1 RES     
     270 C          206.0591   109.4120    26.6075 C             1 RES     
     271 N          212.1418   110.6750    23.0154 N             1 RES     
     272 H          200.5593   119.0868    22.9869 H             1 RES     
     273 H          172.5580   120.2803    23.7003 H             1 RES     
     274 H          207.1262   118.6391    23.7457 H             1 RES     
     275 C          213.4422   120.0062    24.7271 C             1 RES     
     276 H          211.7811   115.8449    23.3115 H             1 RES     
     277 H          211.7457   116.8658    24.2420 H             1 RES     
     278 H          213.4227   120.6153    25.6066 H             1 RES     
     279 H          214.4499   119.7129    24.5187 H             1 RES     
     280 H          173.3166   118.6716    23.8655 H             1 RES     
     281 H          169.0049   122.5990    24.6884 H             1 RES     
     282 H          169.0538   122.8459    21.6986 H             1 RES     
     283 C          227.3074   107.3779    20.8179 C             1 RES     
     284 C          229.3889   108.3455    19.9900 C             1 RES     
     285 C          233.8369   107.3018    19.0061 C             1 RES     
     286 C          228.0090   103.7184    21.2433 C             1 RES     
     287 C          226.8762   105.4301    21.2171 C             1 RES     
     288 C          230.9105   106.5780    19.9235 C             1 RES     
     289 H          229.6861   109.3374    19.7209 H             1 RES     
     290 H          226.6301   108.6877    20.6588 H             1 RES     
     291 C          230.3352   104.5218    20.4703 C             1 RES     
     292 H          227.7065   102.7282    21.5135 H             1 RES     
     293 O          243.6742    99.4984    19.7170 O             1 RES     
     294 H          231.1021   103.7781    20.4086 H             1 RES     
     295 C          236.0418   105.4608    18.8363 C             1 RES     
     296 H          233.7617   107.7241    18.0259 H             1 RES     
     297 H          234.1944   107.9468    19.7815 H             1 RES     
     298 C          238.2918   106.3493    18.0029 C             1 RES     
     299 C          239.5770   101.7746    19.4910 C             1 RES     
     300 C          235.1937   102.6424    19.5372 C             1 RES     
     301 C          240.0188   104.5901    17.8360 C             1 RES     
     302 C          236.8918   101.0846    19.2588 C             1 RES     
     303 H          236.7614    99.8388    19.3811 H             1 RES     
     304 H          238.5642   107.3497    17.7388 H             1 RES     
     305 H          240.6364   103.9850    17.3642 H             1 RES     
     306 H          234.1802   102.4782    19.8384 H             1 RES     
     307 O          225.0783   105.3086    22.5734 O             1 RES     
     308 C          223.8963   107.1942    23.4076 C             1 RES     
     309 C          221.0460   107.0301    24.0706 C             1 RES     
     310 H          224.2957   107.8819    24.6432 H             1 RES     
     311 H          223.1444   107.3696    22.0479 H             1 RES     
     312 C          248.5804   104.2571    19.8141 C             1 RES     
     313 O          218.7792   108.6771    22.4723 O             1 RES     
     314 H          252.1891   104.6683    19.3443 H             1 RES     
     315 H          251.8794   105.1876    20.8729 H             1 RES     
     316 H          252.5401    94.1910    25.4368 H             1 RES     
     317 C          244.8712   100.2665    19.0358 C             1 RES     
     318 C          247.2434    98.2792    19.4353 C             1 RES     
     319 H          244.2408   101.4533    19.4988 H             1 RES     
     320 O          244.8493   100.4825    17.3237 O             1 RES     
     321 H          244.6299   100.7845    16.2029 H             1 RES     
     322 N          248.7751    98.9847    18.7550 N             1 RES     
     323 H          247.0813    98.1432    20.6083 H             1 RES     
     324 H          247.1199    97.0077    18.0503 H             1 RES     
     325 C          251.3988    98.6637    22.5579 C             1 RES     
     326 H          258.8667    93.5376    20.9186 H             1 RES     
     327 C          251.8005   100.8488    21.6742 C             1 RES     
     328 H          253.0301    93.4528    23.5704 H             1 RES     
     329 C          253.4170    96.7929    23.5624 C             1 RES     
     330 C          254.4565   102.1776    21.5263 C             1 RES     
     331 H          260.7141   104.6863    20.8732 H             1 RES     
     332 C          251.5783   104.4230    20.1878 C             1 RES     
     333 C          256.1139   100.4401    22.4786 C             1 RES     
     334 H          248.2101   105.2029    19.4777 H             1 RES     
     335 H          254.1622    93.8382    24.8915 H             1 RES     
     336 C          255.7913    97.6381    23.5721 C             1 RES     
     337 C          258.7271   100.9604    21.3824 C             1 RES     
     338 C          216.5316   109.6314    22.4561 C             1 RES     
     339 H          248.3526   103.5059    19.0871 H             1 RES     
     340 C          253.1960    94.1863    24.5914 C             1 RES     
     341 N          259.1223    94.8493    20.5994 N             1 RES     
     342 H          248.1184   104.0040    20.7455 H             1 RES     
     343 H          220.3423   107.1037    22.9557 H             1 RES     
     344 H          254.6770   103.1584    21.1598 H             1 RES     
     345 C          261.1144   104.1496    21.7079 C             1 RES     
     346 H          259.1102   100.0402    20.6238 H             1 RES     
     347 H          259.1953   101.1086    21.4959 H             1 RES     
     348 H          261.1861   104.8040    22.5515 H             1 RES     
     349 H          262.0872   103.7789    21.4603 H             1 RES     
     350 H          221.0053   105.4588    23.1684 H             1 RES     
     351 H          248.6184    97.2845    19.1200 H             1 RES     
     352 H          217.0094   109.7035    24.0090 H             1 RES     
     353 H          216.8959   109.7894    21.0119 H             1 RES     
     354 H           20.8166   142.9597    11.1579 H             1 RES     
     355 H          260.1505    94.5214    20.4203 H             1 RES     
     356 C           32.9851   143.7431   162.0099 C             1 RES     
     357 C           34.8341   145.3332   161.9257 C             1 RES     
     358 C           39.4995   145.6081   161.9258 C             1 RES     
     359 C           34.5828   140.3511   161.9258 C             1 RES     
     360 C           33.0453   141.7112   161.9258 C             1 RES     
     361 C           36.7708   144.0322   161.9257 C             1 RES     
     362 H           34.8893   146.4017   161.9257 H             1 RES     
     363 H           32.0141   144.8609   161.9258 H             1 RES     
     364 C           36.6968   141.8294   161.9257 C             1 RES     
     365 H           34.5219   139.2828   161.9258 H             1 RES     
     366 O           50.7846   140.3375   163.6693 O             1 RES     
     367 H           37.6374   141.3192   161.9257 H             1 RES     
     368 C           42.1193   144.4196   161.9871 C             1 RES     
     369 H           39.5037   146.2258   161.0522 H             1 RES     
     370 H           39.5029   146.1109   162.8703 H             1 RES     
     371 C           44.1498   145.9752   161.9258 C             1 RES     
     372 C           46.3426   141.5976   162.8325 C             1 RES     
     373 C           41.9715   141.3983   161.9258 C             1 RES     
     374 C           46.2970   144.7534   161.8839 C             1 RES     
     375 C           44.0572   140.3867   161.8072 C             1 RES     
     376 H           44.2585   139.1526   161.6638 H             1 RES     
     377 H           44.1784   147.0448   161.9258 H             1 RES     
     378 H           47.1393   144.4387   161.4817 H             1 RES     
     379 H           41.0055   140.9380   161.9258 H             1 RES     
     380 O           31.1227   140.8561   162.7378 O             1 RES     
     381 C           29.3212   142.1610   163.5747 C             1 RES     
     382 C           26.5577   141.1917   163.4540 C             1 RES     
     383 H           29.2615   142.6025   164.9749 H             1 RES     
     384 H           28.8329   142.4823   162.1244 H             1 RES     
     385 C           54.0477   145.9270   165.8682 C             1 RES     
     386 O           24.2816   142.6104   161.6616 O             1 RES     
     387 H           57.4170   147.2567   166.4092 H             1 RES     
     388 H           56.6803   147.3058   167.8779 H             1 RES     
     389 H           59.4745   135.9869   170.3809 H             1 RES     
     390 C           51.8291   141.5011   163.4645 C             1 RES     
     391 C           54.5350   140.0755   164.0824 C             1 RES     
     392 H           50.8141   142.3634   163.9609 H             1 RES     
     393 O           52.0849   142.1134   161.8713 O             1 RES     
     394 H           52.0147   142.6186   160.8058 H             1 RES     
     395 N           55.9114   141.2567   163.9517 N             1 RES     
     396 H           54.1899   139.6266   165.1313 H             1 RES     
     397 H           55.0464   139.1830   162.5038 H             1 RES     
     398 C           57.7190   140.6375   168.1705 C             1 RES     
     399 C           57.6601   143.0034   167.8299 C             1 RES     
     400 H           60.5082   135.8544   168.5970 H             1 RES     
     401 C           59.9407   139.0942   169.2950 C             1 RES     
     402 C           59.8144   144.9017   168.6029 C             1 RES     
     403 H           65.1236   148.8613   170.0213 H             1 RES     
     404 C           56.7455   146.6813   167.0116 C             1 RES     
     405 C           61.6701   143.4139   169.6108 C             1 RES     
     406 H           53.5017   146.8150   165.6270 H             1 RES     
     407 H           61.2048   136.1584   170.2088 H             1 RES     
     408 C           61.9343   140.4339   170.0584 C             1 RES     
     409 C           64.1964   144.7693   169.3247 C             1 RES     
     410 C           21.9059   142.9980   161.2515 C             1 RES     
     411 H           54.1864   145.3421   164.9831 H             1 RES     
     412 C           60.2585   136.3373   169.7426 C             1 RES     
     413 N           66.4284   139.2875   167.5687 N             1 RES     
     414 H           53.5010   145.3572   166.5903 H             1 RES     
     415 H           26.0951   141.3690   162.2300 H             1 RES     
     416 H           59.8198   145.9656   168.4888 H             1 RES     
     417 C           65.4855   148.2455   170.8180 C             1 RES     
     418 H           64.9626   144.1729   168.5333 H             1 RES     
     419 H           64.5727   144.9890   169.5779 H             1 RES     
     420 H           65.2043   148.6751   171.7568 H             1 RES     
     421 H           66.5520   148.1792   170.7613 H             1 RES     
     422 H           27.1357   139.9189   162.3005 H             1 RES     
     423 H           22.0294   142.8005   162.8610 H             1 RES     
     424 H           22.4882   143.5796   160.0000 H             1 RES     
     425 C           82.1012   139.2046   167.7885 C             1 RES     
     426 C           84.0395   140.6608   167.5117 C             1 RES     
     427 C           88.7047   140.6226   167.2354 C             1 RES     
     428 C           83.4716   135.7135   167.8062 C             1 RES     
     429 C           82.0267   137.1716   167.8157 C             1 RES     
     430 C           85.8859   139.2349   167.4766 C             1 RES     
     431 H           84.1627   141.7217   167.4485 H             1 RES     
     432 H           81.2002   140.3788   167.6961 H             1 RES     
     433 C           85.6718   137.0451   167.6047 C             1 RES     
     434 H           83.3428   134.6532   167.8697 H             1 RES     
     435 O           99.7146   134.7077   168.6388 O             1 RES     
     436 H           86.5763   136.4738   167.5808 H             1 RES     
     437 C           91.2424   139.2664   167.2168 C             1 RES     
     438 H           88.6963   141.1919   166.3296 H             1 RES     
     439 H           88.7963   141.1729   168.1484 H             1 RES     
     440 C           93.3607   140.6773   166.9546 C             1 RES     
     441 C           95.3200   136.2165   167.9822 C             1 RES     
     442 C           90.8989   136.2627   167.3340 C             1 RES     
     443 C           95.4193   139.3141   166.8615 C             1 RES     
     444 C           92.9051   135.1090   167.1560 C             1 RES     
     445 H           93.0185   133.8584   167.0713 H             1 RES     
     446 H           93.4574   141.7411   166.8929 H             1 RES     
     447 H           96.2144   138.9231   166.4312 H             1 RES     
     448 H           89.9073   135.8687   167.4139 H             1 RES     
     449 O           80.1052   136.4908   168.7808 O             1 RES     
     450 C           78.4435   137.9554   169.6424 C             1 RES     
     451 C           75.6216   137.1681   169.7311 C             1 RES     
     452 H           78.4955   138.4728   171.0166 H             1 RES     
     453 H           77.8913   138.2321   168.2059 H             1 RES     
     454 C          103.4524   140.1741   170.3337 C             1 RES     
     455 O           73.3380   138.6399   167.9919 O             1 RES     
     456 H          106.9258   141.3020   170.6097 H             1 RES     
     457 H          106.2824   141.4773   172.1123 H             1 RES     
     458 H          108.4933   130.1438   175.0880 H             1 RES     
     459 C          100.8171   135.7865   168.3107 C             1 RES     
     460 C          103.4586   134.2175   168.8555 C             1 RES     
     461 H           99.8904   136.7396   168.8138 H             1 RES     
     462 O          101.0161   136.2958   166.6738 O             1 RES     
     463 H          100.9150   136.7480   165.5871 H             1 RES     
     464 N          104.8972   135.2954   168.5818 N             1 RES     
     465 H          103.1486   133.8483   169.9457 H             1 RES     
     466 H          103.8172   133.2111   167.3035 H             1 RES     
     467 C          106.9095   134.7790   172.7210 C             1 RES     
     468 H          115.4394   131.4479   171.7837 H             1 RES     
     469 C          106.9813   137.1224   172.2517 C             1 RES     
     470 H          109.4085   129.8490   173.2593 H             1 RES     
     471 C          109.0912   133.1517   173.8046 C             1 RES     
     472 C          109.2944   138.9103   172.7949 C             1 RES     
     473 H          114.9202   142.5748   173.6891 H             1 RES     
     474 C          106.2560   140.8052   171.2802 C             1 RES     
     475 C          111.1082   137.3566   173.7796 C             1 RES     
     476 H          102.9507   141.0827   170.0738 H             1 RES     
     477 H          110.2177   130.1899   174.8100 H             1 RES     
     478 C          111.2080   134.3933   174.3787 C             1 RES     
     479 C          113.6943   138.5231   173.2768 C             1 RES     
     480 C           70.9716   139.1635   167.6941 C             1 RES     
     481 H          103.5006   139.5356   169.4766 H             1 RES     
     482 C          109.2587   130.4070   174.3881 C             1 RES     
     483 N          115.4638   132.8197   171.7100 N             1 RES     
     484 H          102.9144   139.6808   171.1162 H             1 RES     
     485 H           75.0992   137.3115   168.5269 H             1 RES     
     486 H          109.3609   139.9640   172.6210 H             1 RES     
     487 C          115.2889   141.9789   174.4977 C             1 RES     
     488 H          114.3724   137.8361   172.4786 H             1 RES     
     489 H          114.0982   138.7301   173.4958 H             1 RES     
     490 H          115.0920   142.4750   175.4251 H             1 RES     
     491 H          116.3437   141.8385   174.3853 H             1 RES     
     492 H           76.0476   135.8007   168.6206 H             1 RES     
     493 H           71.1778   139.0429   169.3028 H             1 RES     
     494 H           71.5143   139.6383   166.3813 H             1 RES     
     495 C          131.0847   131.7002   171.0572 C             1 RES     
     496 C          133.0920   133.0070   170.5909 C             1 RES     
     497 C          137.7206   132.6423   170.0566 C             1 RES     
     498 C          132.2284   128.1311   171.1945 C             1 RES     
     499 C          130.8825   129.6810   171.2028 C             1 RES     
     500 C          134.8384   131.4609   170.5328 C             1 RES     
     501 H          133.2785   134.0525   170.4613 H             1 RES     
     502 H          130.2565   132.9256   170.9494 H             1 RES     
     503 C          134.4931   129.3000   170.7957 C             1 RES     
     504 H          132.0363   127.0865   171.3247 H             1 RES     
     505 O          148.3949   126.0860   171.1726 O             1 RES     
     506 H          135.3563   128.6691   170.7534 H             1 RES     
     507 C          140.1610   131.1203   169.9725 C             1 RES     
     508 H          137.6946   133.1626   169.1221 H             1 RES     
     509 H          137.9012   133.2325   170.9307 H             1 RES     
     510 C          142.3456   132.3706   169.5133 C             1 RES     
     511 C          144.0742   127.8488   170.6789 C             1 RES     
     512 C          139.6343   128.1566   170.2775 C             1 RES     
     513 C          144.3039   130.8698   169.3820 C             1 RES     
     514 C          141.5488   126.8636   170.0528 C             1 RES     
     515 H          141.5769   125.6054   170.0324 H             1 RES     
     516 H          142.5060   133.4209   169.3864 H             1 RES     
     517 H          145.0455   130.4044   168.9305 H             1 RES     
     518 H          138.6261   127.8345   170.4348 H             1 RES     
     519 O          128.9823   129.1819   172.3106 O             1 RES     
     520 C          127.4716   130.7975   173.1800 C             1 RES     
     521 C          124.6155   130.2066   173.4706 C             1 RES     
     522 H          127.6381   131.3817   174.5179 H             1 RES     
     523 H          126.8537   131.0348   171.7634 H             1 RES     
     524 C          152.5678   131.3715   172.3456 C             1 RES     
     525 O          122.3309   131.7344   171.7818 O             1 RES     
     526 H          156.1163   132.2775   172.3630 H             1 RES     
     527 H          155.5759   132.5740   173.8869 H             1 RES     
     528 H          157.2330   121.2899   177.3672 H             1 RES     
     529 C          149.5425   127.0699   170.7232 C             1 RES     
     530 C          152.1063   125.3585   171.2069 C             1 RES     
     531 H          148.7101   128.1080   171.2229 H             1 RES     
     532 O          149.6759   127.4782   169.0516 O             1 RES     
     533 H          149.5393   127.8784   167.9486 H             1 RES     
     534 N          153.5919   126.3219   170.7929 N             1 RES     
     535 H          151.8388   125.0686   172.3317 H             1 RES     
     536 H          152.3071   124.2503   169.6963 H             1 RES     
     537 C          155.8098   125.8900   174.8356 C             1 RES     
     538 H          164.0391   121.9512   173.6115 H             1 RES     
     539 C          156.0029   128.1955   174.2318 C             1 RES     
     540 H          158.0171   120.8390   175.5098 H             1 RES     
     541 C          157.9440   124.1795   175.8852 C             1 RES     
     542 C          158.4535   129.8507   174.5434 C             1 RES     
     543 H          164.3446   133.1726   174.9139 H             1 RES     
     544 C          155.4573   131.8625   173.0967 C             1 RES     
     545 C          160.2198   128.2330   175.5109 C             1 RES     
     546 H          152.1105   132.2968   172.0634 H             1 RES     
     547 H          158.9372   121.2059   176.9911 H             1 RES     
     548 C          160.1661   125.3051   176.2692 C             1 RES     
     549 C          162.8405   129.1959   174.7994 C             1 RES     
     550 C          119.9893   132.3988   171.5879 C             1 RES     
     551 H          152.5241   130.6871   171.5243 H             1 RES     
     552 C          157.9706   121.4642   176.6120 C             1 RES     
     553 N          164.1465   123.3125   173.4595 N             1 RES     
     554 H          152.0470   130.9571   173.1834 H             1 RES     
     555 H          124.0327   130.3211   172.2913 H             1 RES     
     556 H          158.5764   130.8870   174.3070 H             1 RES     
     557 C          164.7220   132.5965   175.7328 C             1 RES     
     558 H          163.4248   128.4241   174.0045 H             1 RES     
     559 H          163.2691   129.3866   174.9835 H             1 RES     
     560 H          164.6127   133.1527   176.6404 H             1 RES     
     561 H          165.7572   132.3802   175.5696 H             1 RES     
     562 H          124.8867   128.7573   172.4167 H             1 RES     
     563 H          153.6299   124.5846   170.9631 H             1 RES     
     564 H          120.2827   132.3493   173.1867 H             1 RES     
     565 H          120.4821   132.7667   170.2221 H             1 RES     
     566 C          179.5977   121.1178   171.9980 C             1 RES     
     567 C          181.6530   122.2611   171.3474 C             1 RES     
     568 C          186.2088   121.5602   170.5764 C             1 RES     
     569 C          180.5177   117.4924   172.2718 C             1 RES     
     570 C          179.2762   119.1271   172.2681 C             1 RES     
     571 C          183.2907   120.6008   171.2788 C             1 RES     
     572 H          181.8977   123.2836   171.1489 H             1 RES     
     573 H          178.8444   122.3886   171.8679 H             1 RES     
     574 C          182.8246   118.4846   171.6817 C             1 RES     
     575 H          180.2675   116.4713   172.4711 H             1 RES     
     576 O          196.4910   114.3721   171.4608 O             1 RES     
     577 H          183.6417   117.7960   171.6268 H             1 RES     
     578 C          188.5380   119.8760   170.4417 C             1 RES     
     579 H          186.1605   122.0312   169.6170 H             1 RES     
     580 H          186.4784   122.1819   171.4044 H             1 RES     
     581 C          190.7666   120.9515   169.7914 C             1 RES     
     582 C          192.2697   116.3916   171.1111 C             1 RES     
     583 C          187.8425   116.9742   170.9420 C             1 RES     
     584 C          192.6140   119.3182   169.6355 C             1 RES     
     585 C          189.6539   115.5460   170.6837 C             1 RES     
     586 H          189.6005   114.2895   170.7325 H             1 RES     
     587 H          190.9858   121.9806   169.5969 H             1 RES     
     588 H          193.2962   118.7812   169.1701 H             1 RES     
     589 H          186.8269   116.7291   171.1733 H             1 RES     
     590 O          177.4174   118.8151   173.5068 O             1 RES     
     591 C          176.0672   120.5716   174.3670 C             1 RES     
     592 C          173.2015   120.1891   174.8497 C             1 RES     
     593 H          176.3499   121.2127   175.6585 H             1 RES     
     594 H          175.3824   120.7749   172.9760 H             1 RES     
     595 C          201.0547   119.4209   172.0992 C             1 RES     
     596 O          170.9226   121.7756   173.2080 O             1 RES     
     597 H          204.6484   120.0871   171.8671 H             1 RES     
     598 H          204.2197   120.4987   173.3998 H             1 RES     
     599 H          205.3582   109.3273   177.4114 H             1 RES     
     600 C          197.6701   115.2521   170.8932 C             1 RES     
     601 C          200.1439   113.4007   171.3283 C             1 RES     
     602 H          196.9368   116.3683   171.3795 H             1 RES     
     603 O          197.7296   115.5622   169.1965 O             1 RES     
     604 H          197.5535   115.9122   168.0821 H             1 RES     
     605 N          201.6606   114.2396   170.7783 N             1 RES     
     606 H          199.9258   113.1889   172.4808 H             1 RES     
     607 H          200.1834   112.2039   169.8736 H             1 RES     
     608 C          204.0831   113.8731   174.7085 C             1 RES     
     609 H          211.9571   109.3338   173.2496 H             1 RES     
     610 C          204.3864   116.1256   173.9661 C             1 RES     
     611 H          206.0000   108.7281   175.5413 H             1 RES     
     612 C          206.1625   112.0811   175.7317 C             1 RES     
     613 C          206.9517   117.6272   174.0465 C             1 RES     
     614 H          213.0543   120.5624   173.8994 H             1 RES     
     615 C          204.0091   119.7562   172.6588 C             1 RES     
     616 C          208.6658   115.9480   175.0032 C             1 RES     
     617 H          200.6413   120.3586   171.7915 H             1 RES     
     618 H          207.0282   109.1098   176.9458 H             1 RES     
     619 C          208.4707   113.0741   175.9269 C             1 RES     
     620 C          211.2956   116.6947   174.0932 C             1 RES     
     621 C          168.6207   122.5840   173.1083 C             1 RES     
     622 H          200.9187   118.6988   171.3215 H             1 RES     
     623 C          206.0591   109.4120   176.6075 C             1 RES     
     624 N          212.1418   110.6750   173.0154 N             1 RES     
     625 H          200.5593   119.0868   172.9869 H             1 RES     
     626 H          172.5580   120.2803   173.7003 H             1 RES     
     627 H          207.1262   118.6391   173.7457 H             1 RES     
     628 C          213.4422   120.0062   174.7271 C             1 RES     
     629 H          211.7811   115.8449   173.3115 H             1 RES     
     630 H          211.7457   116.8658   174.2420 H             1 RES     
     631 H          213.4227   120.6153   175.6066 H             1 RES     
     632 H          214.4499   119.7129   174.5187 H             1 RES     
     633 H          173.3166   118.6716   173.8655 H             1 RES     
     634 H          169.0049   122.5990   174.6884 H             1 RES     
     635 H          169.0538   122.8459   171.6986 H             1 RES     
     636 C          227.3074   107.3779   170.8179 C             1 RES     
     637 C          229.3889   108.3455   169.9900 C             1 RES     
     638 C          233.8369   107.3018   169.0061 C             1 RES     
     639 C          228.0090   103.7184   171.2433 C             1 RES     
     640 C          226.8762   105.4301   171.2171 C             1 RES     
     641 C          230.9105   106.5780   169.9235 C             1 RES     
     642 H          229.6861   109.3374   169.7209 H             1 RES     
     643 H          226.6301   108.6877   170.6588 H             1 RES     
     644 C          230.3352   104.5218   170.4703 C             1 RES     
     645 H          227.7065   102.7282   171.5135 H             1 RES     
     646 O          243.6742    99.4984   169.7170 O             1 RES     
     647 H          231.1021   103.7781   170.4086 H             1 RES     
     648 C          236.0418   105.4608   168.8363 C             1 RES     
     649 H          233.7617   107.7241   168.0259 H             1 RES     
     650 H          234.1944   107.9468   169.7815 H             1 RES     
     651 C          238.2918   106.3493   168.0029 C             1 RES     
     652 C          239.5770   101.7746   169.4910 C             1 RES     
     653 C          235.1937   102.6424   169.5372 C             1 RES     
     654 C          240.0188   104.5901   167.8360 C             1 RES     
     655 C          236.8918   101.0846   169.2588 C             1 RES     
     656 H          236.7614    99.8388   169.3811 H             1 RES     
     657 H          238.5642   107.3497   167.7388 H             1 RES     
     658 H          240.6364   103.9850   167.3642 H             1 RES     
     659 H          234.1802   102.4782   169.8384 H             1 RES     
     660 O          225.0783   105.3086   172.5734 O             1 RES     
     661 C          223.8963   107.1942   173.4076 C             1 RES     
     662 C          221.0460   107.0301   174.0706 C             1 RES     
     663 H          224.2957   107.8819   174.6432 H             1 RES     
     664 H          223.1444   107.3696   172.0479 H             1 RES     
     665 C          248.5804   104.2571   169.8141 C             1 RES     
     666 O          218.7792   108.6771   172.4723 O             1 RES     
     667 H          252.1891   104.6683   169.3443 H             1 RES     
     668 H          251.8794   105.1876   170.8729 H             1 RES     
     669 H          252.5401    94.1910   175.4368 H             1 RES     
     670 C          244.8712   100.2665   169.0358 C             1 RES     
     671 C          247.2434    98.2792   169.4353 C             1 RES     
     672 H          244.2408   101.4533   169.4988 H             1 RES     
     673 O          244.8493   100.4825   167.3237 O             1 RES     
     674 H          244.6299   100.7845   166.2029 H             1 RES     
     675 N          248.7751    98.9847   168.7550 N             1 RES     
     676 H          247.0813    98.1432   170.6083 H             1 RES     
     677 H          247.1199    97.0077   168.0503 H             1 RES     
     678 C          251.3988    98.6637   172.5579 C             1 RES     
     679 H          258.8667    93.5376   170.9186 H             1 RES     
     680 C          251.8005   100.8488   171.6742 C             1 RES     
     681 H          253.0301    93.4528   173.5704 H             1 RES     
     682 C          253.4170    96.7929   173.5624 C             1 RES     
     683 C          254.4565   102.1776   171.5263 C             1 RES     
     684 H          260.7141   104.6863   170.8732 H             1 RES     
     685 C          251.5783   104.4230   170.1878 C             1 RES     
     686 C          256.1139   100.4401   172.4786 C             1 RES     
     687 H          248.2101   105.2029   169.4777 H             1 RES     
     688 H          254.1622    93.8382   174.8915 H             1 RES     
     689 C          255.7913    97.6381   173.5721 C             1 RES     
     690 C          258.7271   100.9604   171.3824 C             1 RES     
     691 C          216.5316   109.6314   172.4561 C             1 RES     
     692 H          248.3526   103.5059   169.0871 H             1 RES     
     693 C          253.1960    94.1863   174.5914 C             1 RES     
     694 N          259.1223    94.8493   170.5994 N             1 RES     
     695 H          248.1184   104.0040   170.7455 H             1 RES     
     696 H          220.3423   107.1037   172.9557 H             1 RES     
     697 H          254.6770   103.1584   171.1598 H             1 RES     
     698 C          261.1144   104.1496   171.7079 C             1 RES     
     699 H          259.1102   100.0402   170.6238 H             1 RES     
     700 H          259.1953   101.1086   171.4959 H             1 RES     
     701 H          261.1861   104.8040   172.5515 H             1 RES     
     702 H          262.0872   103.7789   171.4603 H             1 RES     
     703 H          221.0053   105.4588   173.1684 H             1 RES     
     704 H          248.6184    97.2845   169.1200 H             1 RES     
     705 H          217.0094   109.7035   174.0090 H             1 RES     
     706 H          216.8959   109.7894   171.0119 H             1 RES     
     707 H           20.8166   142.9597   161.1579 H             1 RES     
     708 H          260.1505    94.5214   170.4203 H             1 RES     
     709 C           32.9851   143.7431   312.0099 C             1 RES     
     710 C           34.8341   145.3332   311.9257 C             1 RES     
     711 C           39.4995   145.6081   311.9258 C             1 RES     
     712 C           34.5828   140.3511   311.9258 C             1 RES     
     713 C           33.0453   141.7112   311.9258 C             1 RES     
     714 C           36.7708   144.0322   311.9257 C             1 RES     
     715 H           34.8893   146.4017   311.9257 H             1 RES     
     716 H           32.0141   144.8609   311.9258 H             1 RES     
     717 C           36.6968   141.8294   311.9257 C             1 RES     
     718 H           34.5219   139.2828   311.9258 H             1 RES     
     719 O           50.7846   140.3375   313.6693 O             1 RES     
     720 H           37.6374   141.3192   311.9257 H             1 RES     
     721 C           42.1193   144.4196   311.9871 C             1 RES     
     722 H           39.5037   146.2258   311.0522 H             1 RES     
     723 H           39.5029   146.1109   312.8703 H             1 RES     
     724 C           44.1498   145.9752   311.9258 C             1 RES     
     725 C           46.3426   141.5976   312.8325 C             1 RES     
     726 C           41.9715   141.3983   311.9258 C             1 RES     
     727 C           46.2970   144.7534   311.8839 C             1 RES     
     728 C           44.0572   140.3867   311.8072 C             1 RES     
     729 H           44.2585   139.1526   311.6638 H             1 RES     
     730 H           44.1784   147.0448   311.9258 H             1 RES     
     731 H           47.1393   144.4387   311.4817 H             1 RES     
     732 H           41.0055   140.9380   311.9258 H             1 RES     
     733 O           31.1227   140.8561   312.7378 O             1 RES     
     734 C           29.3212   142.1610   313.5747 C             1 RES     
     735 C           26.5577   141.1917   313.4540 C             1 RES     
     736 H           29.2615   142.6025   314.9749 H             1 RES     
     737 H           28.8329   142.4823   312.1244 H             1 RES     
     738 C           54.0477   145.9270   315.8682 C             1 RES     
     739 O           24.2816   142.6104   311.6616 O             1 RES     
     740 H           57.4170   147.2567   316.4092 H             1 RES     
     741 H           56.6803   147.3058   317.8779 H             1 RES     
     742 H           59.4745   135.9869   320.3809 H             1 RES     
     743 C           51.8291   141.5011   313.4645 C             1 RES     
     744 C           54.5350   140.0755   314.0824 C             1 RES     
     745 H           50.8141   142.3634   313.9609 H             1 RES     
     746 O           52.0849   142.1134   311.8713 O             1 RES     
     747 H           52.0147   142.6186   310.8058 H             1 RES     
     748 N           55.9114   141.2567   313.9517 N             1 RES     
     749 H           54.1899   139.6266   315.1313 H             1 RES     
     750 H           55.0464   139.1830   312.5038 H             1 RES     
     751 C           57.7190   140.6375   318.1705 C             1 RES     
     752 C           57.6601   143.0034   317.8299 C             1 RES     
     753 H           60.5082   135.8544   318.5970 H             1 RES     
     754 C           59.9407   139.0942   319.2950 C             1 RES     
     755 C           59.8144   144.9017   318.6029 C             1 RES     
     756 H           65.1236   148.8613   320.0213 H             1 RES     
     757 C           56.7455   146.6813   317.0116 C             1 RES     
     758 C           61.6701   143.4139   319.6108 C             1 RES     
     759 H           53.5017   146.8150   315.6270 H             1 RES     
     760 H           61.2048   136.1584   320.2088 H             1 RES     
     761 C           61.9343   140.4339   320.0584 C             1 RES     
     762 C           64.1964   144.7693   319.3247 C             1 RES     
     763 C           21.9059   142.9980   311.2515 C             1 RES     
     764 H           54.1864   145.3421   314.9831 H             1 RES     
     765 C           60.2585   136.3373   319.7426 C             1 RES     
     766 N           66.4284   139.2875   317.5687 N             1 RES     
     767 H           53.5010   145.3572   316.5903 H             1 RES     
     768 H           26.0951   141.3690   312.2300 H             1 RES     
     769 H           59.8198   145.9656   318.4888 H             1 RES     
     770 C           65.4855   148.2455   320.8180 C             1 RES     
     771 H           64.9626   144.1729   318.5333 H             1 RES     
     772 H           64.5727   144.9890   319.5779 H             1 RES     
     773 H           65.2043   148.6751   321.7568 H             1 RES     
     774 H           66.5520   148.1792   320.7613 H             1 RES     
     775 H           27.1357   139.9189   312.3005 H             1 RES     
     776 H           56.1671   139.5295   313.9496 H             1 RES     
     777 H           22.0294   142.8005   312.8610 H             1 RES     
     778 H           22.4882   143.5796   310.0000 H             1 RES     
     779 C           82.1012   139.2046   317.7885 C             1 RES     
     780 C           84.0395   140.6608   317.5117 C             1 RES     
     781 C           88.7047   140.6226   317.2354 C             1 RES     
     782 C           83.4716   135.7135   317.8062 C             1 RES     
     783 C           82.0267   137.1716   317.8157 C             1 RES     
     784 C           85.8859   139.2349   317.4766 C             1 RES     
     785 H           84.1627   141.7217   317.4485 H             1 RES     
     786 H           81.2002   140.3788   317.6961 H             1 RES     
     787 C           85.6718   137.0451   317.6047 C             1 RES     
     788 H           83.3428   134.6532   317.8697 H             1 RES     
     789 O           99.7146   134.7077   318.6388 O             1 RES     
     790 H           86.5763   136.4738   317.5808 H             1 RES     
     791 C           91.2424   139.2664   317.2168 C             1 RES     
     792 H           88.6963   141.1919   316.3296 H             1 RES     
     793 H           88.7963   141.1729   318.1484 H             1 RES     
     794 C           93.3607   140.6773   316.9546 C             1 RES     
     795 C           95.3200   136.2165   317.9822 C             1 RES     
     796 C           90.8989   136.2627   317.3340 C             1 RES     
     797 C           95.4193   139.3141   316.8615 C             1 RES     
     798 C           92.9051   135.1090   317.1560 C             1 RES     
     799 H           93.0185   133.8584   317.0713 H             1 RES     
     800 H           93.4574   141.7411   316.8929 H             1 RES     
     801 H           96.2144   138.9231   316.4312 H             1 RES     
     802 H           89.9073   135.8687   317.4139 H             1 RES     
     803 O           80.1052   136.4908   318.7808 O             1 RES     
     804 C           78.4435   137.9554   319.6424 C             1 RES     
     805 C           75.6216   137.1681   319.7311 C             1 RES     
     806 H           78.4955   138.4728   321.0166 H             1 RES     
     807 H           77.8913   138.2321   318.2059 H             1 RES     
     808 C          103.4524   140.1741   320.3337 C             1 RES     
     809 O           73.3380   138.6399   317.9919 O             1 RES     
     810 H          106.9258   141.3020   320.6097 H             1 RES     
     811 H          106.2824   141.4773   322.1123 H             1 RES     
     812 H          108.4933   130.1438   325.0880 H             1 RES     
     813 C          100.8171   135.7865   318.3107 C             1 RES     
     814 C          103.4586   134.2175   318.8555 C             1 RES     
     815 H           99.8904   136.7396   318.8138 H             1 RES     
     816 O          101.0161   136.2958   316.6738 O             1 RES     
     817 H          100.9150   136.7480   315.5871 H             1 RES     
     818 N          104.8972   135.2954   318.5818 N             1 RES     
     819 H          103.1486   133.8483   319.9457 H             1 RES     
     820 H          103.8172   133.2111   317.3035 H             1 RES     
     821 C          106.9095   134.7790   322.7210 C             1 RES     
     822 H          115.4394   131.4479   321.7837 H             1 RES     
     823 C          106.9813   137.1224   322.2517 C             1 RES     
     824 H          109.4085   129.8490   323.2593 H             1 RES     
     825 C          109.0912   133.1517   323.8046 C             1 RES     
     826 C          109.2944   138.9103   322.7949 C             1 RES     
     827 H          114.9202   142.5748   323.6891 H             1 RES     
     828 C          106.2560   140.8052   321.2802 C             1 RES     
     829 C          111.1082   137.3566   323.7796 C             1 RES     
     830 H          102.9507   141.0827   320.0738 H             1 RES     
     831 H          110.2177   130.1899   324.8100 H             1 RES     
     832 C          111.2080   134.3933   324.3787 C             1 RES     
     833 C          113.6943   138.5231   323.2768 C             1 RES     
     834 C           70.9716   139.1635   317.6941 C             1 RES     
     835 H          103.5006   139.5356   319.4766 H             1 RES     
     836 C          109.2587   130.4070   324.3881 C             1 RES     
     837 N          115.4638   132.8197   321.7100 N             1 RES     
     838 H          102.9144   139.6808   321.1162 H             1 RES     
     839 H           75.0992   137.3115   318.5269 H             1 RES     
     840 H          109.3609   139.9640   322.6210 H             1 RES     
     841 C          115.2889   141.9789   324.4977 C             1 RES     
     842 H          114.3724   137.8361   322.4786 H             1 RES     
     843 H          114.0982   138.7301   323.4958 H             1 RES     
     844 H          115.0920   142.4750   325.4251 H             1 RES     
     845 H          116.3437   141.8385   324.3853 H             1 RES     
     846 H           76.0476   135.8007   318.6206 H             1 RES     
     847 H           71.1778   139.0429   319.3028 H             1 RES     
     848 H           71.5143   139.6383   316.3813 H             1 RES     
     849 C          131.0847   131.7002   321.0572 C             1 RES     
     850 C          133.0920   133.0070   320.5909 C             1 RES     
     851 C          137.7206   132.6423   320.0566 C             1 RES     
     852 C          132.2284   128.1311   321.1945 C             1 RES     
     853 C          130.8825   129.6810   321.2028 C             1 RES     
     854 C          134.8384   131.4609   320.5328 C             1 RES     
     855 H          133.2785   134.0525   320.4613 H             1 RES     
     856 H          130.2565   132.9256   320.9494 H             1 RES     
     857 C          134.4931   129.3000   320.7957 C             1 RES     
     858 H          132.0363   127.0865   321.3247 H             1 RES     
     859 O          148.3949   126.0860   321.1726 O             1 RES     
     860 H          135.3563   128.6691   320.7534 H             1 RES     
     861 C          140.1610   131.1203   319.9725 C             1 RES     
     862 H          137.6946   133.1626   319.1221 H             1 RES     
     863 H          137.9012   133.2325   320.9307 H             1 RES     
     864 C          142.3456   132.3706   319.5133 C             1 RES     
     865 C          144.0742   127.8488   320.6789 C             1 RES     
     866 C          139.6343   128.1566   320.2775 C             1 RES     
     867 C          144.3039   130.8698   319.3820 C             1 RES     
     868 C          141.5488   126.8636   320.0528 C             1 RES     
     869 H          141.5769   125.6054   320.0324 H             1 RES     
     870 H          142.5060   133.4209   319.3864 H             1 RES     
     871 H          145.0455   130.4044   318.9305 H             1 RES     
     872 H          138.6261   127.8345   320.4348 H             1 RES     
     873 O          128.9823   129.1819   322.3106 O             1 RES     
     874 C          127.4716   130.7975   323.1800 C             1 RES     
     875 C          124.6155   130.2066   323.4706 C             1 RES     
     876 H          127.6381   131.3817   324.5179 H             1 RES     
     877 H          126.8537   131.0348   321.7634 H             1 RES     
     878 C          152.5678   131.3715   322.3456 C             1 RES     
     879 O          122.3309   131.7344   321.7818 O             1 RES     
     880 H          156.1163   132.2775   322.3630 H             1 RES     
     881 H          155.5759   132.5740   323.8869 H             1 RES     
     882 H          157.2330   121.2899   327.3672 H             1 RES     
     883 C          149.5425   127.0699   320.7232 C             1 RES     
     884 C          152.1063   125.3585   321.2069 C             1 RES     
     885 H          148.7101   128.1080   321.2229 H             1 RES     
     886 O          149.6759   127.4782   319.0516 O             1 RES     
     887 H          149.5393   127.8784   317.9486 H             1 RES     
     888 N          153.5919   126.3219   320.7929 N             1 RES     
     889 H          151.8388   125.0686   322.3317 H             1 RES     
     890 H          152.3071   124.2503   319.6963 H             1 RES     
     891 C          155.8098   125.8900   324.8356 C             1 RES     
     892 H          164.0391   121.9512   323.6115 H             1 RES     
     893 C          156.0029   128.1955   324.2318 C             1 RES     
     894 H          158.0171   120.8390   325.5098 H             1 RES     
     895 C          157.9440   124.1795   325.8852 C             1 RES     
     896 C          158.4535   129.8507   324.5434 C             1 RES     
     897 H          164.3446   133.1726   324.9139 H             1 RES     
     898 C          155.4573   131.8625   323.0967 C             1 RES     
     899 C          160.2198   128.2330   325.5109 C             1 RES     
     900 H          152.1105   132.2968   322.0634 H             1 RES     
     901 H          158.9372   121.2059   326.9911 H             1 RES     
     902 C          160.1661   125.3051   326.2692 C             1 RES     
     903 C          162.8405   129.1959   324.7994 C             1 RES     
     904 C          119.9893   132.3988   321.5879 C             1 RES     
     905 H          152.5241   130.6871   321.5243 H             1 RES     
     906 C          157.9706   121.4642   326.6120 C             1 RES     
     907 N          164.1465   123.3125   323.4595 N             1 RES     
     908 H          152.0470   130.9571   323.1834 H             1 RES     
     909 H          124.0327   130.3211   322.2913 H             1 RES     
     910 H          158.5764   130.8870   324.3070 H             1 RES     
     911 C          164.7220   132.5965   325.7328 C             1 RES     
     912 H          163.4248   128.4241   324.0045 H             1 RES     
     913 H          163.2691   129.3866   324.9835 H             1 RES     
     914 H          164.6127   133.1527   326.6404 H             1 RES     
     915 H          165.7572   132.3802   325.5696 H             1 RES     
     916 H          124.8867   128.7573   322.4167 H             1 RES     
     917 H          153.6299   124.5846   320.9631 H             1 RES     
     918 H          120.2827   132.3493   323.1867 H             1 RES     
     919 H          120.4821   132.7667   320.2221 H             1 RES     
     920 C          179.5977   121.1178   321.9980 C             1 RES     
     921 C          181.6530   122.2611   321.3474 C             1 RES     
     922 C          186.2088   121.5602   320.5764 C             1 RES     
     923 C          180.5177   117.4924   322.2718 C             1 RES     
     924 C          179.2762   119.1271   322.2681 C             1 RES     
     925 C          183.2907   120.6008   321.2788 C             1 RES     
     926 H          181.8977   123.2836   321.1489 H             1 RES     
     927 H          178.8444   122.3886   321.8679 H             1 RES     
     928 C          182.8246   118.4846   321.6817 C             1 RES     
     929 H          180.2675   116.4713   322.4711 H             1 RES     
     930 O          196.4910   114.3721   321.4608 O             1 RES     
     931 H          183.6417   117.7960   321.6268 H             1 RES     
     932 C          188.5380   119.8760   320.4417 C             1 RES     
     933 H          186.1605   122.0312   319.6170 H             1 RES     
     934 H          186.4784   122.1819   321.4044 H             1 RES     
     935 C          190.7666   120.9515   319.7914 C             1 RES     
     936 C          192.2697   116.3916   321.1111 C             1 RES     
     937 C          187.8425   116.9742   320.9420 C             1 RES     
     938 C          192.6140   119.3182   319.6355 C             1 RES     
     939 C          189.6539   115.5460   320.6837 C             1 RES     
     940 H          189.6005   114.2895   320.7325 H             1 RES     
     941 H          190.9858   121.9806   319.5969 H             1 RES     
     942 H          193.2962   118.7812   319.1701 H             1 RES     
     943 H          186.8269   116.7291   321.1733 H             1 RES     
     944 O          177.4174   118.8151   323.5068 O             1 RES     
     945 C          176.0672   120.5716   324.3670 C             1 RES     
     946 C          173.2015   120.1891   324.8497 C             1 RES     
     947 H          176.3499   121.2127   325.6585 H             1 RES     
     948 H          175.3824   120.7749   322.9760 H             1 RES     
     949 C          201.0547   119.4209   322.0992 C             1 RES     
     950 O          170.9226   121.7756   323.2080 O             1 RES     
     951 H          204.6484   120.0871   321.8671 H             1 RES     
     952 H          204.2197   120.4987   323.3998 H             1 RES     
     953 H          205.3582   109.3273   327.4114 H             1 RES     
     954 C          197.6701   115.2521   320.8932 C             1 RES     
     955 C          200.1439   113.4007   321.3283 C             1 RES     
     956 H          196.9368   116.3683   321.3795 H             1 RES     
     957 O          197.7296   115.5622   319.1965 O             1 RES     
     958 H          197.5535   115.9122   318.0821 H             1 RES     
     959 N          201.6606   114.2396   320.7783 N             1 RES     
     960 H          199.9258   113.1889   322.4808 H             1 RES     
     961 H          200.1834   112.2039   319.8736 H             1 RES     
     962 C          204.0831   113.8731   324.7085 C             1 RES     
     963 H          211.9571   109.3338   323.2496 H             1 RES     
     964 C          204.3864   116.1256   323.9661 C             1 RES     
     965 H          206.0000   108.7281   325.5413 H             1 RES     
     966 C          206.1625   112.0811   325.7317 C             1 RES     
     967 C          206.9517   117.6272   324.0465 C             1 RES     
     968 H          213.0543   120.5624   323.8994 H             1 RES     
     969 C          204.0091   119.7562   322.6588 C             1 RES     
     970 C          208.6658   115.9480   325.0032 C             1 RES     
     971 H          200.6413   120.3586   321.7915 H             1 RES     
     972 H          207.0282   109.1098   326.9458 H             1 RES     
     973 C          208.4707   113.0741   325.9269 C             1 RES     
     974 C          211.2956   116.6947   324.0932 C             1 RES     
     975 C          168.6207   122.5840   323.1083 C             1 RES     
     976 H          200.9187   118.6988   321.3215 H             1 RES     
     977 C          206.0591   109.4120   326.6075 C             1 RES     
     978 N          212.1418   110.6750   323.0154 N             1 RES     
     979 H          200.5593   119.0868   322.9869 H             1 RES     
     980 H          172.5580   120.2803   323.7003 H             1 RES     
     981 H          207.1262   118.6391   323.7457 H             1 RES     
     982 C          213.4422   120.0062   324.7271 C             1 RES     
     983 H          211.7811   115.8449   323.3115 H             1 RES     
     984 H          211.7457   116.8658   324.2420 H             1 RES     
     985 H          213.4227   120.6153   325.6066 H             1 RES     
     986 H          214.4499   119.7129   324.5187 H             1 RES     
     987 H          173.3166   118.6716   323.8655 H             1 RES     
     988 H          201.5978   112.5150   321.0436 H             1 RES     
     989 H          169.0049   122.5990   324.6884 H             1 RES     
     990 H          169.0538   122.8459   321.6986 H             1 RES     
     991 C          227.3074   107.3779   320.8179 C             1 RES     
     992 C          229.3889   108.3455   319.9900 C             1 RES     
     993 C          233.8369   107.3018   319.0061 C             1 RES     
     994 C          228.0090   103.7184   321.2433 C             1 RES     
     995 C          226.8762   105.4301   321.2171 C             1 RES     
     996 C          230.9105   106.5780   319.9235 C             1 RES     
     997 H          229.6861   109.3374   319.7209 H             1 RES     
     998 H          226.6301   108.6877   320.6588 H             1 RES     
     999 C          230.3352   104.5218   320.4703 C             1 RES     
    1000 H          227.7065   102.7282   321.5135 H             1 RES     
    1001 O          243.6742    99.4984   319.7170 O             1 RES     
    1002 H          231.1021   103.7781   320.4086 H             1 RES     
    1003 C          236.0418   105.4608   318.8363 C             1 RES     
    1004 H          233.7617   107.7241   318.0259 H             1 RES     
    1005 H          234.1944   107.9468   319.7815 H             1 RES     
    1006 C          238.2918   106.3493   318.0029 C             1 RES     
    1007 C          239.5770   101.7746   319.4910 C             1 RES     
    1008 C          235.1937   102.6424   319.5372 C             1 RES     
    1009 C          240.0188   104.5901   317.8360 C             1 RES     
    1010 C          236.8918   101.0846   319.2588 C             1 RES     
    1011 H          236.7614    99.8388   319.3811 H             1 RES     
    1012 H          238.5642   107.3497   317.7388 H             1 RES     
    1013 H          240.6364   103.9850   317.3642 H             1 RES     
    1014 H          234.1802   102.4782   319.8384 H             1 RES     
    1015 O          225.0783   105.3086   322.5734 O             1 RES     
    1016 C          223.8963   107.1942   323.4076 C             1 RES     
    1017 C          221.0460   107.0301   324.0706 C             1 RES     
    1018 H          224.2957   107.8819   324.6432 H             1 RES     
    1019 H          223.1444   107.3696   322.0479 H             1 RES     
    1020 C          248.5804   104.2571   319.8141 C             1 RES     
    1021 O          218.7792   108.6771   322.4723 O             1 RES     
    1022 H          252.1891   104.6683   319.3443 H             1 RES     
    1023 H          251.8794   105.1876   320.8729 H             1 RES     
    1024 H          252.5401    94.1910   325.4368 H             1 RES     
    1025 C          244.8712   100.2665   319.0358 C             1 RES     
    1026 C          247.2434    98.2792   319.4353 C             1 RES     
    1027 H          244.2408   101.4533   319.4988 H             1 RES     
    1028 O          244.8493   100.4825   317.3237 O             1 RES     
    1029 H          244.6299   100.7845   316.2029 H             1 RES     
    1030 N          248.7751    98.9847   318.7550 N             1 RES     
    1031 H          247.0813    98.1432   320.6083 H             1 RES     
    1032 H          247.1199    97.0077   318.0503 H             1 RES     
    1033 C          251.3988    98.6637   322.5579 C             1 RES     
    1034 H          258.8667    93.5376   320.9186 H             1 RES     
    1035 C          251.8005   100.8488   321.6742 C             1 RES     
    1036 H          253.0301    93.4528   323.5704 H             1 RES     
    1037 C          253.4170    96.7929   323.5624 C             1 RES     
    1038 C          254.4565   102.1776   321.5263 C             1 RES     
    1039 H          260.7141   104.6863   320.8732 H             1 RES     
    1040 C          251.5783   104.4230   320.1878 C             1 RES     
    1041 C          256.1139   100.4401   322.4786 C             1 RES     
    1042 H          248.2101   105.2029   319.4777 H             1 RES     
    1043 H          254.1622    93.8382   324.8915 H             1 RES     
    1044 C          255.7913    97.6381   323.5721 C             1 RES     
    1045 C          258.7271   100.9604   321.3824 C             1 RES     
    1046 C          216.5316   109.6314   322.4561 C             1 RES     
    1047 H          248.3526   103.5059   319.0871 H             1 RES     
    1048 C          253.1960    94.1863   324.5914 C             1 RES     
    1049 N          259.1223    94.8493   320.5994 N             1 RES     
    1050 H          248.1184   104.0040   320.7455 H             1 RES     
    1051 H          220.3423   107.1037   322.9557 H             1 RES     
    1052 H          254.6770   103.1584   321.1598 H             1 RES     
    1053 C          261.1144   104.1496   321.7079 C             1 RES     
    1054 H          259.1102   100.0402   320.6238 H             1 RES     
    1055 H          259.1953   101.1086   321.4959 H             1 RES     
    1056 H          261.1861   104.8040   322.5515 H             1 RES     
    1057 H          262.0872   103.7789   321.4603 H             1 RES     
    1058 H          221.0053   105.4588   323.1684 H             1 RES     
    1059 H          248.6184    97.2845   319.1200 H             1 RES     
    1060 H          217.0094   109.7035   324.0090 H             1 RES     
    1061 H          216.8959   109.7894   321.0119 H             1 RES     
    1062 H           20.8166   142.9597   311.1579 H             1 RES     
    1063 H          260.1505    94.5214   320.4203 H             1 RES     
    1064 C           45.1102   170.9120    52.4011 C             1 RES     
    1065 C           43.5541   170.1035    54.0980 C             1 RES     
    1066 C           42.8746   169.8962    58.7171 C             1 RES     
    1067 C           47.7542   172.7884    54.2861 C             1 RES     
    1068 C           46.7623   172.0758    52.6362 C             1 RES     
    1069 C           44.4581   170.7792    56.1400 C             1 RES     
    1070 H           42.6532   169.5277    54.0589 H             1 RES     
    1071 H           44.2216   170.3935    51.3329 H             1 RES     
    1072 C           46.3115   171.9659    56.2601 C             1 RES     
    1073 H           48.6555   173.3642    54.3195 H             1 RES     
    1074 O           47.9185   170.7580    69.0177 O             1 RES     
    1075 H           46.6486   172.2286    57.2411 H             1 RES     
    1076 C           43.6514   170.4510    61.4316 C             1 RES     
    1077 H           41.8874   170.2998    58.6310 H             1 RES     
    1078 H           42.9598   168.8296    58.7152 H             1 RES     
    1079 C           42.1191   169.6395    63.3132 C             1 RES     
    1080 C           46.0639   171.2040    65.9180 C             1 RES     
    1081 C           46.1650   172.1309    61.5478 C             1 RES     
    1082 C           42.9139   170.3052    65.5560 C             1 RES     
    1083 C           46.7484   172.7488    63.7077 C             1 RES     
    1084 H           47.6864   173.5314    64.0107 H             1 RES     
    1085 H           41.2198   169.0634    63.2475 H             1 RES     
    1086 H           42.8807   170.8029    66.4054 H             1 RES     
    1087 H           46.6439   172.3909    60.6268 H             1 RES     
    1088 O           48.1690   172.8455    50.0449 O             1 RES     
    1089 C           47.4085   172.2740    48.2672 C             1 RES     
    1090 H           49.6189   173.1849    46.5413 H             1 RES     
    1091 H           44.3479   172.0283    47.8776 H             1 RES     
    1092 C           46.7599   169.4577    70.4381 C             1 RES     
    1093 H           44.4864   168.7263    69.2967 H             1 RES     
    1094 H           47.7444   169.5664    73.6440 H             1 RES     
    1095 O           44.8153   168.5244    70.1648 O             1 RES     
    1096 H           47.5685   171.2168    48.2269 H             1 RES     
    1097 H           48.4528   174.4838    46.6177 H             1 RES     
    1098 O           44.9696   171.3108    47.9133 O             1 RES     
    1099 C           48.3475   169.3262    72.7935 C             1 RES     
    1100 H           45.8817   168.9535    70.0927 H             1 RES     
    1101 H           49.1542   170.0253    72.7194 H             1 RES     
    1102 H           54.1326   165.1652    82.9315 H             1 RES     
    1103 H           55.2014   159.3333    85.8893 H             1 RES     
    1104 H           54.5751   161.5346    73.5677 H             1 RES     
    1105 C           52.8836   168.1643    79.6558 C             1 RES     
    1106 C           53.8211   171.5491    81.5636 C             1 RES     
    1107 C           54.5857   160.7434    74.2879 C             1 RES     
    1108 N           50.0527   166.3027    74.4949 N             1 RES     
    1109 C           54.3409   159.8074    86.3134 C             1 RES     
    1110 H           53.4583   159.2889    86.0022 H             1 RES     
    1111 C           54.3284   164.3481    76.8629 C             1 RES     
    1112 H           53.3987   163.2950    85.7116 H             1 RES     
    1113 C           54.2070   162.6804    85.3741 C             1 RES     
    1114 H           54.4106   159.7841    87.3808 H             1 RES     
    1115 C           54.1917   165.5975    79.6144 C             1 RES     
    1116 H           53.2985   171.3260    82.4702 H             1 RES     
    1117 C           54.3530   161.6821    81.6304 C             1 RES     
    1118 N           51.5694   158.0456    82.0504 N             1 RES     
    1119 C           54.4617   161.8313    76.8769 C             1 RES     
    1120 C           54.5151   160.5695    79.5203 C             1 RES     
    1121 H           55.0422   163.2700    85.6895 H             1 RES     
    1122 C           54.1846   164.6268    82.0083 C             1 RES     
    1123 H           53.4257   160.2740    74.0828 H             1 RES     
    1124 H           55.4870   160.1766    74.1820 H             1 RES     
    1125 H           52.9545   168.6595    79.5951 H             1 RES     
    1126 H           54.8073   171.8934    81.7958 H             1 RES     
    1127 H           49.9519   165.6102    73.7392 H             1 RES     
    1128 H           53.2948   172.3106    81.0267 H             1 RES     
    1129 H           51.8064   168.1530    79.0167 H             1 RES     
    1130 H           51.2048   158.6292    82.8169 H             1 RES     
    1131 C           51.0929   148.5112    86.7555 C             1 RES     
    1132 C           49.9303   146.5060    87.5183 C             1 RES     
    1133 C           49.5160   143.6140    91.1660 C             1 RES     
    1134 C           53.0819   149.6938    89.7068 C             1 RES     
    1135 C           52.3046   149.7614    87.8081 C             1 RES     
    1136 C           50.6498   146.1693    89.7120 C             1 RES     
    1137 H           49.2543   145.8216    87.0500 H             1 RES     
    1138 H           50.3738   148.4409    85.4604 H             1 RES     
    1139 C           52.0413   147.5571    90.7098 C             1 RES     
    1140 H           53.7581   150.3815    90.1704 H             1 RES     
    1141 O           54.4020   140.0470   100.9481 O             1 RES     
    1142 H           52.3140   147.3193    91.7168 H             1 RES     
    1143 C           50.1767   142.7769    93.8386 C             1 RES     
    1144 H           48.4497   143.7020    91.1666 H             1 RES     
    1145 H           49.9309   142.7996    90.6098 H             1 RES     
    1146 C           49.0442   140.6745    94.7573 C             1 RES     
    1147 C           52.3912   141.5810    98.3308 C             1 RES     
    1148 C           52.0402   144.7403    95.1901 C             1 RES     
    1149 C           49.6704   140.1890    97.0976 C             1 RES     
    1150 C           52.4777   144.2034    97.4055 C             1 RES     
    1151 H           53.1336   144.9159    98.2093 H             1 RES     
    1152 H           48.3689   140.0050    94.2669 H             1 RES     
    1153 H           49.5134   140.1045    98.0664 H             1 RES     
    1154 H           52.3801   145.5853    94.6285 H             1 RES     
    1155 O           53.3056   152.1856    86.2566 O             1 RES     
    1156 C           52.6992   152.4994    84.3596 C             1 RES     
    1157 H           54.4497   154.7847    83.7211 H             1 RES     
    1158 H           49.8576   151.6615    83.4634 H             1 RES     
    1159 C           53.7608   137.9181   101.2758 C             1 RES     
    1160 H           51.7914   137.3319    99.6071 H             1 RES     
    1161 H           54.7760   136.5182   104.1513 H             1 RES     
    1162 O           52.1979   136.7883   100.2718 O             1 RES     
    1163 H           53.1807   151.7344    83.7870 H             1 RES     
    1164 C           53.3839   154.7075    83.6646 C             1 RES     
    1165 H           52.9388   155.4378    84.3076 H             1 RES     
    1166 O           50.6736   151.2517    83.2012 O             1 RES     
    1167 C           55.3931   136.9657   103.4006 C             1 RES     
    1168 H           53.0729   137.4647   100.5931 H             1 RES     
    1169 H           55.9370   137.7829   103.8264 H             1 RES     
    1170 H           62.5500   129.7430   110.4837 H             1 RES     
    1171 H           65.4971   123.8279   110.0066 H             1 RES     
    1172 H           63.7714   132.1553   100.8014 H             1 RES     
    1173 C           60.3079   133.5529   109.1638 C             1 RES     
    1174 C           60.2057   135.4315   112.6903 C             1 RES     
    1175 C           64.0551   131.1399   100.9836 C             1 RES     
    1176 N           58.0193   134.1297   103.4590 N             1 RES     
    1177 C           64.5472   123.7266   110.4888 C             1 RES     
    1178 H           63.8608   123.2420   109.8264 H             1 RES     
    1179 C           62.7741   132.4896   105.0119 C             1 RES     
    1180 H           62.5390   126.5377   111.7046 H             1 RES     
    1181 C           63.4865   126.4662   111.2126 C             1 RES     
    1182 H           64.6589   123.1412   111.3775 H             1 RES     
    1183 C           62.3517   131.9226   107.9531 C             1 RES     
    1184 H           59.8122   134.6110   113.2533 H             1 RES     
    1185 C           63.8035   127.7787   107.5780 C             1 RES     
    1186 N           62.3160   123.9051   105.5951 N             1 RES     
    1187 C           63.6895   130.5386   103.7051 C             1 RES     
    1188 C           64.2302   128.1081   105.2485 C             1 RES     
    1189 H           64.1057   126.9912   111.9095 H             1 RES     
    1190 C           62.7349   129.8412   109.4344 C             1 RES     
    1191 H           63.0939   130.5578   100.3960 H             1 RES     
    1192 H           65.0842   131.0049   100.7236 H             1 RES     
    1193 H           60.2178   133.9959   109.3866 H             1 RES     
    1194 H           61.0420   135.8514   113.2091 H             1 RES     
    1195 H           58.1135   133.9716   102.4456 H             1 RES     
    1196 H           59.4484   136.1780   112.5712 H             1 RES     
    1197 H           59.2662   133.5931   108.4693 H             1 RES     
    1198 H           61.8147   123.8410   106.4926 H             1 RES     
    1199 C           65.0190   113.6825   104.3861 C             1 RES     
    1200 C           64.5712   111.3591   103.7897 C             1 RES     
    1201 C           65.2146   106.9625   105.2378 C             1 RES     
    1202 C           66.6420   113.5494   107.7645 C             1 RES     
    1203 C           65.8151   114.4279   106.1037 C             1 RES     
    1204 C           65.4381   110.0905   105.5455 C             1 RES     
    1205 H           64.1273   110.8882   102.9377 H             1 RES     
    1206 H           64.3122   114.1371   103.1642 H             1 RES     
    1207 C           66.3597   111.0248   107.3162 C             1 RES     
    1208 H           67.0849   114.0255   108.6143 H             1 RES     
    1209 O           71.3195   100.1507   112.2102 O             1 RES     
    1210 H           66.7291   110.3608   108.0696 H             1 RES     
    1211 C           66.1997   105.0205   107.1187 C             1 RES     
    1212 H           64.1752   106.7323   105.1316 H             1 RES     
    1213 H           65.8436   106.7436   104.4002 H             1 RES     
    1214 C           65.8165   102.5434   106.6052 C             1 RES     
    1215 C           68.8369   102.2320   110.5515 C             1 RES     
    1216 C           67.4016   106.3457   109.5586 C             1 RES     
    1217 C           66.6467   101.0509   108.3907 C             1 RES     
    1218 C           68.0644   104.8286   111.1854 C             1 RES     
    1219 H           68.4925   105.1316   112.3296 H             1 RES     
    1220 H           65.3678   102.0965   105.7427 H             1 RES     
    1221 H           66.5589   100.4081   109.1319 H             1 RES     
    1222 H           67.4394   107.4147   109.5879 H             1 RES     
    1223 O           65.9500   117.4691   106.2412 O             1 RES     
    1224 C           65.2082   118.5883   104.7372 C             1 RES     
    1225 H           66.1307   121.2288   105.6709 H             1 RES     
    1226 H           62.7419   117.6243   103.1348 H             1 RES     
    1227 C           71.3896    98.1153   111.2599 C             1 RES     
    1228 H           69.6444    98.0185   109.2720 H             1 RES     
    1229 H           72.8947    95.7183   113.0622 H             1 RES     
    1230 O           70.2243    97.3394   109.5964 O             1 RES     
    1231 H           65.8843   118.4360   103.9219 H             1 RES     
    1232 C           65.1415   120.9001   105.4293 C             1 RES     
    1233 H           64.5134   120.9967   106.2902 H             1 RES     
    1234 O           63.6353   117.6747   102.8156 O             1 RES     
    1235 H           70.8544    97.9407   110.3501 H             1 RES     
    1236 H           73.5886    97.2178   113.6302 H             1 RES     
    1237 H           48.3080   174.0474    45.6379 H             1 RES     
    1238 H           74.2705    96.2239   112.4563 H             1 RES     
    1239 C          158.3536   129.4198    88.9387 C             1 RES     
    1240 C          159.5542   127.9157    87.4385 C             1 RES     
    1241 C          161.8149   123.8276    87.3051 C             1 RES     
    1242 C          158.1720   127.6170    92.2223 C             1 RES     
    1243 C          157.7952   129.1158    90.8713 C             1 RES     
    1244 C          160.1336   126.0708    88.7439 C             1 RES     
    1245 H          159.8513   127.9786    86.4126 H             1 RES     
    1246 H          158.1102   130.3549    87.8136 H             1 RES     
    1247 C          159.5398   125.9059    90.8600 C             1 RES     
    1248 H          157.8723   127.5591    93.2479 H             1 RES     
    1249 O          167.0099   115.7379    93.6182 O             1 RES     
    1250 H          159.8520   125.0226    91.3770 H             1 RES     
    1251 C          162.7954   121.4197    88.5382 C             1 RES     
    1252 H          161.2349   123.4877    86.4727 H             1 RES     
    1253 H          162.7428   124.3103    87.0795 H             1 RES     
    1254 C          164.0919   119.7623    87.0825 C             1 RES     
    1255 C          164.7774   117.7858    91.6011 C             1 RES     
    1256 C          161.9075   121.2063    91.4226 C             1 RES     
    1257 C          164.7547   117.7207    88.3062 C             1 RES     
    1258 C          162.5299   119.2058    92.4215 C             1 RES     
    1259 H          162.1900   118.8334    93.5747 H             1 RES     
    1260 H          164.3767   119.8488    86.0548 H             1 RES     
    1261 H          164.7303   116.7600    88.5226 H             1 RES     
    1262 H          161.3370   122.0107    91.8381 H             1 RES     
    1263 O          156.1693   131.3771    92.1078 O             1 RES     
    1264 C          155.6558   132.9825    91.0014 C             1 RES     
    1265 H          154.4820   134.6271    93.1490 H             1 RES     
    1266 H          155.0789   132.6812    87.9755 H             1 RES     
    1267 C          168.5764   114.7831    92.3200 C             1 RES     
    1268 H          168.2084   115.5361    89.8092 H             1 RES     
    1269 H          170.2149   112.1915    93.6831 H             1 RES     
    1270 O          168.8620   114.9494    90.1710 O             1 RES     
    1271 H          156.5719   133.5127    90.8447 H             1 RES     
    1272 H          153.1792   133.7160    92.4239 H             1 RES     
    1273 O          155.8314   133.1114    88.3644 O             1 RES     
    1274 C          170.1304   113.1808    94.0817 C             1 RES     
    1275 H          168.6696   115.0867    91.2982 H             1 RES     
    1276 H          169.6552   113.1400    95.0395 H             1 RES     
    1277 H          179.6879   107.5805    99.6360 H             1 RES     
    1278 H          186.3040   107.7886    99.3422 H             1 RES     
    1279 H          178.3858   117.3881    97.8549 H             1 RES     
    1280 C          175.3065   108.8271    98.9057 C             1 RES     
    1281 C          173.5112   105.9377   101.0044 C             1 RES     
    1282 C          179.4101   117.1066    97.7268 C             1 RES     
    1283 N          173.8666   113.4233    95.0434 N             1 RES     
    1284 C          185.9333   107.0060    98.7136 C             1 RES     
    1285 H          186.0543   107.2850    97.6878 H             1 RES     
    1286 C          177.5128   113.2518    98.8363 C             1 RES     
    1287 H          182.4775   105.7941    98.7458 H             1 RES     
    1288 C          182.9995   106.5494    99.2953 C             1 RES     
    1289 H          186.4792   106.1059    98.9052 H             1 RES     
    1290 C          177.7380   110.2895    99.4058 C             1 RES     
    1291 H          174.0347   105.1192   100.5561 H             1 RES     
    1292 C          182.0853   110.2674    98.6840 C             1 RES     
    1293 N          184.8509   110.7937    95.0475 N             1 RES     
    1294 C          179.6979   114.3582    98.2419 C             1 RES     
    1295 C          182.0559   112.6198    98.2573 C             1 RES     
    1296 H          182.8104   106.2244   100.2970 H             1 RES     
    1297 C          179.7155   108.6274    99.4166 C             1 RES     
    1298 H          179.4857   117.2046    96.4648 H             1 RES     
    1299 H          180.0207   117.6628    98.4070 H             1 RES     
    1300 H          174.8677   108.6833    99.1077 H             1 RES     
    1301 H          173.5216   105.8277   102.0687 H             1 RES     
    1302 H          174.0765   114.3539    94.6553 H             1 RES     
    1303 H          172.4992   105.9472   100.6567 H             1 RES     
    1304 H          174.7982   109.1246    97.8002 H             1 RES     
    1305 H          184.6481   109.7873    94.9637 H             1 RES     
    1306 C          195.1686   110.7055    92.4388 C             1 RES     
    1307 C          197.0215   110.6251    90.8530 C             1 RES     
    1308 C          201.1638   108.6039    90.0802 C             1 RES     
    1309 C          195.9636   108.1164    95.0330 C             1 RES     
    1310 C          194.8422   109.5470    94.0791 C             1 RES     
    1311 C          198.5032   109.0403    91.7111 C             1 RES     
    1312 H          197.2495   111.1625    89.9564 H             1 RES     
    1313 H          194.4662   111.6856    91.5753 H             1 RES     
    1314 C          198.0680   107.9138    93.5549 C             1 RES     
    1315 H          195.7305   107.5817    95.9300 H             1 RES     
    1316 O          209.8662   102.8374    94.9072 O             1 RES     
    1317 H          198.8081   107.2082    93.8703 H             1 RES     
    1318 C          203.2917   106.8048    90.7981 C             1 RES     
    1319 H          200.8797   108.3056    89.0928 H             1 RES     
    1320 H          201.6747   109.5396    90.1716 H             1 RES     
    1321 C          205.3084   106.6382    89.2323 C             1 RES     
    1322 C          206.9043   103.9587    93.1139 C             1 RES     
    1323 C          202.6266   105.2377    93.2992 C             1 RES     
    1324 C          206.9694   104.9676    89.9772 C             1 RES     
    1325 C          204.2347   103.6518    93.8347 C             1 RES     
    1326 H          204.1397   102.8059    94.7619 H             1 RES     
    1327 H          205.5132   107.1886    88.3379 H             1 RES     
    1328 H          207.4758   104.1244    89.9237 H             1 RES     
    1329 H          201.7012   105.4436    93.7953 H             1 RES     
    1330 O          192.2209   110.0922    95.5341 O             1 RES     
    1331 C          190.9233   111.4568    94.8135 C             1 RES     
    1332 H          189.0058   111.4516    97.0535 H             1 RES     
    1333 H          190.6526   111.9045    91.7629 H             1 RES     
    1334 C          211.7183   103.3152    93.7273 C             1 RES     
    1335 H          211.0327   104.5377    91.4818 H             1 RES     
    1336 H          214.4945   101.6691    94.6453 H             1 RES     
    1337 O          211.8963   104.2940    91.7940 O             1 RES     
    1338 H          191.3971   112.4016    94.9803 H             1 RES     
    1339 C          188.8358   111.2743    96.0121 C             1 RES     
    1340 H          188.4325   110.2923    95.8786 H             1 RES     
    1341 O          191.0372   112.5079    92.3878 O             1 RES     
    1342 C          213.8724   102.2784    95.2670 C             1 RES     
    1343 H          211.6436   103.9362    92.8592 H             1 RES     
    1344 H          213.4846   101.6884    96.0710 H             1 RES     
    1345 H          224.8511   100.9869   100.8671 H             1 RES     
    1346 H          230.2583   104.6720   101.9084 H             1 RES     
    1347 H          218.3814   108.6532   101.5219 H             1 RES     
    1348 C          220.5201    99.9429    99.6683 C             1 RES     
    1349 C          220.5860    96.0443   100.5471 C             1 RES     
    1350 C          219.3928   109.0023   101.5223 C             1 RES     
    1351 N          216.8406   104.0914    96.9542 N             1 RES     
    1352 C          230.3900   104.0655   101.0368 C             1 RES     
    1353 H          230.3520   104.6828   100.1636 H             1 RES     
    1354 C          219.9205   104.6088   101.1917 C             1 RES     
    1355 H          228.1759   101.3071   100.0871 H             1 RES     
    1356 C          228.1866   101.9962   100.9056 C             1 RES     
    1357 H          231.3390   103.5735   101.0847 H             1 RES     
    1358 C          221.7340   102.1960   100.9916 C             1 RES     
    1359 H          221.4806    95.8135   100.0074 H             1 RES     
    1360 C          225.3823   104.6639   101.1340 C             1 RES     
    1361 N          227.4516   107.6954    98.3632 N             1 RES     
    1362 C          221.1412   106.8089   101.3391 C             1 RES     
    1363 C          224.0664   106.6490   101.3456 C             1 RES     
    1364 H          228.1936   101.3152   101.7309 H             1 RES     
    1365 C          224.2999   101.9010   100.9411 C             1 RES     
    1366 H          219.4201   109.5297   100.3694 H             1 RES     
    1367 H          219.5852   109.5371   102.4288 H             1 RES     
    1368 H          220.2305    99.5363    99.7376 H             1 RES     
    1369 H          220.6397    95.6163   101.5264 H             1 RES     
    1370 H          216.5079   105.0628    96.8730 H             1 RES     
    1371 H          219.7419    95.6411   100.0276 H             1 RES     
    1372 H          219.9483   100.2750    98.6045 H             1 RES     
    1373 H          227.8388   106.8213    97.9797 H             1 RES     
    1374 C          236.1431   113.8156    97.8450 C             1 RES     
    1375 C          237.7560   115.2271    96.6785 C             1 RES     
    1376 C          242.3368   116.0236    96.2061 C             1 RES     
    1377 C          238.1964   111.3341    99.7664 C             1 RES     
    1378 C          236.4861   112.1961    99.0278 C             1 RES     
    1379 C          239.8533   114.4608    97.3548 C             1 RES     
    1380 H          237.6628   116.0622    96.0162 H             1 RES     
    1381 H          235.0295   114.5085    97.1530 H             1 RES     
    1382 C          240.0848   112.7442    98.7177 C             1 RES     
    1383 H          238.2839   110.4984   100.4290 H             1 RES     
    1384 O          252.7047   114.3946   100.9113 O             1 RES     
    1385 H          241.0866   112.4663    98.9711 H             1 RES     
    1386 C          245.0933   115.4679    96.8168 C             1 RES     
    1387 H          242.2789   115.9618    95.1396 H             1 RES     
    1388 H          242.2454   116.9987    96.6371 H             1 RES     
    1389 C          246.8899   116.8896    95.6778 C             1 RES     
    1390 C          249.6422   114.3322    98.9456 C             1 RES     
    1391 C          245.3665   113.0696    98.6409 C             1 RES     
    1392 C          249.1859   116.1851    96.2587 C             1 RES     
    1393 C          247.5745   112.4729    99.0361 C             1 RES     
    1394 H          247.9484   111.4527    99.6713 H             1 RES     
    1395 H          246.7703   117.7222    95.0165 H             1 RES     
    1396 H          250.0741   115.7974    96.0824 H             1 RES     
    1397 H          244.4738   112.5921    98.9875 H             1 RES     
    1398 O          233.9778   110.7971   100.0464 O             1 RES     
    1399 C          232.1535   111.4397    99.4772 C             1 RES     
    1400 H          230.5245   109.7139   101.2272 H             1 RES     
    1401 H          231.7255   112.6465    96.6594 H             1 RES     
    1402 C          254.0030   116.1154   100.2756 C             1 RES     
    1403 H          252.7897   117.4586    98.3442 H             1 RES     
    1404 H          257.2128   115.9512   101.2398 H             1 RES     
    1405 O          253.6397   117.6112    98.7401 O             1 RES     
    1406 H          232.0251   112.3782    99.9747 H             1 RES     
    1407 C          230.4957   109.8246   100.1634 C             1 RES     
    1408 H          230.7031   108.8822    99.7010 H             1 RES     
    1409 O          231.7043   113.1197    97.4829 O             1 RES     
    1410 H          253.6108   116.8506    99.6045 H             1 RES     
    1411 H          256.3391   114.9798   102.3999 H             1 RES     
    1412 H          153.0539   134.7201    92.0398 H             1 RES     
    1413 H          256.7594   116.5945   102.6168 H             1 RES     
    1414 C           55.9369   167.1537   204.6438 C             1 RES     
    1415 C           54.4171   166.6063   206.4727 C             1 RES     
    1416 C           53.9854   166.7842   211.1228 C             1 RES     
    1417 C           58.8320   168.9178   206.2475 C             1 RES     
    1418 C           57.6917   168.1813   204.7077 C             1 RES     
    1419 C           55.4890   167.3414   208.4102 C             1 RES     
    1420 H           53.4702   166.1107   206.5223 H             1 RES     
    1421 H           54.9488   166.6418   203.6635 H             1 RES     
    1422 C           57.4395   168.3659   208.3477 C             1 RES     
    1423 H           59.7789   169.4129   206.1922 H             1 RES     
    1424 O           59.6597   167.9192   221.0626 O             1 RES     
    1425 H           57.8525   168.6661   209.2881 H             1 RES     
    1426 C           54.9587   167.4575   213.7456 C             1 RES     
    1427 H           53.0324   167.2660   211.0566 H             1 RES     
    1428 H           53.9805   165.7167   211.1963 H             1 RES     
    1429 C           53.4728   166.9180   215.7574 C             1 RES     
    1430 C           57.6764   168.3081   218.0357 C             1 RES     
    1431 C           57.6073   168.9136   213.6089 C             1 RES     
    1432 C           54.4466   167.6668   217.9012 C             1 RES     
    1433 C           58.3621   169.6278   215.6844 C             1 RES     
    1434 H           59.3782   170.3441   215.8803 H             1 RES     
    1435 H           52.5260   166.4201   215.7805 H             1 RES     
    1436 H           54.5035   168.2238   218.7116 H             1 RES     
    1437 H           58.0533   169.0653   212.6481 H             1 RES     
    1438 O           59.0090   168.6405   201.9984 O             1 RES     
    1439 C           58.1036   168.0148   200.3091 C             1 RES     
    1440 H           60.2814   168.6044   198.4106 H             1 RES     
    1441 H           55.0161   168.0127   200.0938 H             1 RES     
    1442 C           58.4782   166.8287   222.6329 C             1 RES     
    1443 H           56.0902   166.2219   221.6655 H             1 RES     
    1444 H           59.6485   167.0749   225.7680 H             1 RES     
    1445 O           56.4496   166.0533   222.5285 O             1 RES     
    1446 H           58.1716   166.9474   200.3399 H             1 RES     
    1447 H           59.2349   170.0031   198.4484 H             1 RES     
    1448 O           55.5762   167.2476   200.1515 O             1 RES     
    1449 C           60.1801   166.7236   224.9085 C             1 RES     
    1450 H           57.5425   166.3807   222.3709 H             1 RES     
    1451 H           61.0372   167.3420   224.7418 H             1 RES     
    1452 H           66.1600   162.7910   235.0246 H             1 RES     
    1453 H           66.9005   157.1096   238.3525 H             1 RES     
    1454 H           65.7642   158.4878   225.9481 H             1 RES     
    1455 C           64.9841   165.6512   231.6010 C             1 RES     
    1456 C           66.3095   169.0659   233.2006 C             1 RES     
    1457 C           65.7490   157.7512   226.7240 C             1 RES     
    1458 N           61.7186   163.6886   226.7430 N             1 RES     
    1459 C           66.1084   157.6862   238.7828 C             1 RES     
    1460 H           65.1690   157.2269   238.5561 H             1 RES     
    1461 C           65.9421   161.5362   229.0319 C             1 RES     
    1462 H           65.4302   161.1923   237.9702 H             1 RES     
    1463 C           66.1635   160.4869   237.6393 C             1 RES     
    1464 H           66.2363   157.7318   239.8441 H             1 RES     
    1465 C           66.0672   162.9827   231.6857 C             1 RES     
    1466 H           65.8223   168.9538   234.1466 H             1 RES     
    1467 C           66.0126   159.2195   233.9781 C             1 RES     
    1468 N           62.9614   155.8804   234.8087 N             1 RES     
    1469 C           65.8639   159.0247   229.2274 C             1 RES     
    1470 C           65.9607   157.9516   231.9516 C             1 RES     
    1471 H           67.0619   161.0213   237.8672 H             1 RES     
    1472 C           66.1142   162.1867   234.1428 C             1 RES     
    1473 H           64.5439   157.3725   226.6134 H             1 RES     
    1474 H           66.5920   157.1013   226.6155 H             1 RES     
    1475 H           65.0928   166.1328   231.4999 H             1 RES     
    1476 H           67.3327   169.3375   233.3564 H             1 RES     
    1477 H           61.5173   162.9563   226.0473 H             1 RES     
    1478 H           65.8195   169.8312   232.6355 H             1 RES     
    1479 H           63.8752   165.6900   231.0196 H             1 RES     
    1480 H           62.6912   156.5462   235.5468 H             1 RES     
    1481 C           61.9522   146.7786   240.2315 C             1 RES     
    1482 C           60.6702   144.9419   241.1998 C             1 RES     
    1483 C           60.2215   142.3606   245.0698 C             1 RES     
    1484 C           64.1977   147.9857   242.9821 C             1 RES     
    1485 C           63.3225   147.9880   241.1253 C             1 RES     
    1486 C           61.4819   144.6979   243.3735 C             1 RES     
    1487 H           59.9136   144.2885   240.8186 H             1 RES     
    1488 H           61.1574   146.6811   238.9832 H             1 RES     
    1489 C           63.0395   146.0245   244.1932 C             1 RES     
    1490 H           64.9545   148.6420   243.3583 H             1 RES     
    1491 O           65.3369   139.0725   254.8323 O             1 RES     
    1492 H           63.3480   145.8348   245.2001 H             1 RES     
    1493 C           60.9599   141.6582   247.7607 C             1 RES     
    1494 H           59.1681   142.5420   245.1175 H             1 RES     
    1495 H           60.5343   141.4758   244.5557 H             1 RES     
    1496 C           59.7085   139.7333   248.8900 C             1 RES     
    1497 C           63.3170   140.5901   252.2124 C             1 RES     
    1498 C           63.0555   143.5399   248.8660 C             1 RES     
    1499 C           60.4233   139.3599   251.2255 C             1 RES     
    1500 C           63.5712   143.1233   251.0904 C             1 RES     
    1501 H           64.3292   143.8300   251.8046 H             1 RES     
    1502 H           58.9526   139.0930   248.4857 H             1 RES     
    1503 H           60.3150   139.3577   252.2046 H             1 RES     
    1504 H           63.4329   144.3102   248.2263 H             1 RES     
    1505 O           64.4342   150.2000   239.3484 O             1 RES     
    1506 C           63.7497   150.4320   237.4661 C             1 RES     
    1507 H           65.6472   152.5040   236.5712 H             1 RES     
    1508 H           60.8016   149.7867   236.7795 H             1 RES     
    1509 C           64.5385   137.0366   255.3502 C             1 RES     
    1510 H           62.4353   136.5103   253.8315 H             1 RES     
    1511 H           65.5937   135.7579   258.2675 H             1 RES     
    1512 O           62.8317   135.9810   254.5136 O             1 RES     
    1513 H           64.1320   149.5894   236.9288 H             1 RES     
    1514 C           64.5773   152.5171   236.5744 C             1 RES     
    1515 H           64.2324   153.3271   237.1826 H             1 RES     
    1516 O           61.5641   149.2893   236.5079 O             1 RES     
    1517 C           66.2027   136.0956   257.4552 C             1 RES     
    1518 H           63.7773   136.5987   254.7389 H             1 RES     
    1519 H           66.8366   136.8896   257.7908 H             1 RES     
    1520 H           73.1167   128.7859   264.6887 H             1 RES     
    1521 H           75.5241   122.6155   264.5072 H             1 RES     
    1522 H           73.9859   130.3962   254.8039 H             1 RES     
    1523 C           71.1318   132.6763   263.2024 C             1 RES     
    1524 C           71.3880   134.7993   266.5792 C             1 RES     
    1525 C           74.1930   129.3750   255.0470 C             1 RES     
    1526 N           68.5801   133.0506   257.5930 N             1 RES     
    1527 C           74.5979   122.6323   265.0429 C             1 RES     
    1528 H           73.8368   122.1647   264.4541 H             1 RES     
    1529 C           73.2605   131.1115   259.0225 C             1 RES     
    1530 H           72.9055   125.6875   266.1448 H             1 RES     
    1531 C           73.8141   125.4986   265.6124 C             1 RES     
    1532 H           74.7102   122.1032   265.9661 H             1 RES     
    1533 C           72.9594   130.7915   262.0154 C             1 RES     
    1534 H           70.9594   134.0582   267.2211 H             1 RES     
    1535 C           74.0339   126.5199   261.8785 C             1 RES     
    1536 N           72.1159   122.6627   260.2683 N             1 RES     
    1537 C           73.9331   129.0007   257.8208 C             1 RES     
    1538 C           74.3541   126.6462   259.5124 C             1 RES     
    1539 H           74.5138   126.0146   266.2359 H             1 RES     
    1540 C           73.2495   128.7936   263.6270 C             1 RES     
    1541 H           73.1546   128.8400   254.5537 H             1 RES     
    1542 H           75.1908   129.1321   254.7462 H             1 RES     
    1543 H           71.0921   133.1400   263.3956 H             1 RES     
    1544 H           72.2847   135.1794   267.0222 H             1 RES     
    1545 H           68.6032   132.8142   256.5908 H             1 RES     
    1546 H           70.6907   135.5994   266.4429 H             1 RES     
    1547 H           70.0595   132.7591   262.5602 H             1 RES     
    1548 H           71.6627   122.7061   261.1922 H             1 RES     
    1549 C           73.8767   112.1824   259.6923 C             1 RES     
    1550 C           73.2020   109.8714   259.2947 C             1 RES     
    1551 C           73.5545   105.5476   261.0331 C             1 RES     
    1552 C           75.6717   112.1443   262.9851 C             1 RES     
    1553 C           74.8288   112.9735   261.3070 C             1 RES     
    1554 C           74.0572   108.6577   261.0944 C             1 RES     
    1555 H           72.6725   109.3827   258.5037 H             1 RES     
    1556 H           73.1425   112.6106   258.4770 H             1 RES     
    1557 C           75.1530   109.6292   262.7416 C             1 RES     
    1558 H           76.2005   112.6381   263.7735 H             1 RES     
    1559 O           79.4502    98.7310   268.1786 O             1 RES     
    1560 H           75.5074   108.9897   263.5230 H             1 RES     
    1561 C           74.4777   103.6632   263.0019 C             1 RES     
    1562 H           72.4950   105.4029   260.9970 H             1 RES     
    1563 H           74.1143   105.2160   260.1836 H             1 RES     
    1564 C           73.8590   101.1996   262.6950 C             1 RES     
    1565 C           77.0614   100.9012   266.4963 C             1 RES     
    1566 C           75.9232   105.0454   265.2722 C             1 RES     
    1567 C           74.6607    99.7687   264.5430 C             1 RES     
    1568 C           76.5472   103.5937   266.9724 C             1 RES     
    1569 H           77.0634   103.9373   268.0676 H             1 RES     
    1570 H           73.3262   100.7345   261.8921 H             1 RES     
    1571 H           74.5613    99.1897   265.3336 H             1 RES     
    1572 H           76.0523   106.1063   265.2195 H             1 RES     
    1573 O           75.2265   115.9931   261.2098 O             1 RES     
    1574 C           74.4974   117.0650   259.6656 C             1 RES     
    1575 H           75.6901   119.6730   260.3516 H             1 RES     
    1576 H           71.8720   116.2118   258.2662 H             1 RES     
    1577 C           79.2949    96.6357   267.3809 C             1 RES     
    1578 H           77.4379    96.5536   265.4963 H             1 RES     
    1579 H           80.6928    94.2478   269.2791 H             1 RES     
    1580 O           77.9761    95.8506   265.8409 O             1 RES     
    1581 H           75.1110   116.7970   258.8310 H             1 RES     
    1582 C           74.6647   119.4166   260.1854 C             1 RES     
    1583 H           74.0967   119.6282   261.0672 H             1 RES     
    1584 O           72.7468   116.1609   257.8995 O             1 RES     
    1585 H           78.6961    96.4454   266.5148 H             1 RES     
    1586 H           81.5414    95.7167   269.6977 H             1 RES     
    1587 H           58.9986   169.5134   197.5125 H             1 RES     
    1588 H           82.0697    94.5867   268.5685 H             1 RES     
    1589 C          143.6954   135.0393   216.9529 C             1 RES     
    1590 C          141.6582   133.7974   216.4411 C             1 RES     
    1591 C          137.0291   134.2714   216.0075 C             1 RES     
    1592 C          142.6173   138.6119   217.3273 C             1 RES     
    1593 C          143.9356   137.0421   217.2183 C             1 RES     
    1594 C          139.9388   135.3730   216.5069 C             1 RES     
    1595 H          141.4513   132.7650   216.2510 H             1 RES     
    1596 H          144.5000   133.8091   216.7566 H             1 RES     
    1597 C          140.3263   137.5076   216.8956 C             1 RES     
    1598 H          142.8299   139.6431   217.5179 H             1 RES     
    1599 O          127.9713   140.8941   218.5334 O             1 RES     
    1600 H          139.4739   138.1543   216.9063 H             1 RES     
    1601 C          134.6149   135.8362   216.0573 C             1 RES     
    1602 H          137.0313   133.8091   215.0426 H             1 RES     
    1603 H          136.8517   133.6318   216.8467 H             1 RES     
    1604 C          132.4017   134.6531   215.5589 C             1 RES     
    1605 C          130.7717   139.1231   217.0276 C             1 RES     
    1606 C          135.1987   138.7664   216.5341 C             1 RES     
    1607 C          130.4684   136.1917   215.5524 C             1 RES     
    1608 C          133.3041   140.1026   216.4208 C             1 RES     
    1609 H          133.2979   141.3599   216.4778 H             1 RES     
    1610 H          132.2207   133.6155   215.3708 H             1 RES     
    1611 H          129.7282   136.6963   215.1426 H             1 RES     
    1612 H          136.2148   139.0613   216.6940 H             1 RES     
    1613 O          146.8108   137.9394   217.6808 O             1 RES     
    1614 C          148.3149   136.5976   217.6293 C             1 RES     
    1615 H          150.5011   138.3685   218.5121 H             1 RES     
    1616 H          148.1702   134.1525   215.7373 H             1 RES     
    1617 C          126.1760   139.5481   218.6596 C             1 RES     
    1618 H          126.7967   137.1691   217.6789 H             1 RES     
    1619 H          123.2364   141.0856   219.1644 H             1 RES     
    1620 O          125.9687   137.4782   218.0274 O             1 RES     
    1621 H          148.1881   136.0086   218.5135 H             1 RES     
    1622 H          150.4791   138.4045   216.7653 H             1 RES     
    1623 O          148.1033   134.1350   216.6848 O             1 RES     
    1624 C          124.1133   141.1578   219.7733 C             1 RES     
    1625 H          126.2829   138.5063   218.4406 H             1 RES     
    1626 H          124.4376   142.1767   219.8120 H             1 RES     
    1627 H          114.4220   144.9752   226.4864 H             1 RES     
    1628 H          110.6636   142.6141   231.4060 H             1 RES     
    1629 H          122.9281   140.6854   229.6961 H             1 RES     
    1630 C          117.9492   145.2721   223.5275 C             1 RES     
    1631 C          116.8546   148.6184   221.6354 C             1 RES     
    1632 C          122.0874   140.3446   230.2636 C             1 RES     
    1633 N          122.1818   140.7977   223.1024 N             1 RES     
    1634 C          110.2029   142.4099   230.4620 C             1 RES     
    1635 H          110.2734   141.3637   230.2495 H             1 RES     
    1636 C          120.1979   143.1381   227.3798 C             1 RES     
    1637 H          111.2698   143.8820   227.2827 H             1 RES     
    1638 C          111.6130   143.9771   228.2917 C             1 RES     
    1639 H          109.1731   142.6980   230.4980 H             1 RES     
    1640 C          117.7304   144.5137   226.2985 C             1 RES     
    1641 H          115.8522   148.3130   221.4191 H             1 RES     
    1642 C          115.0908   142.5375   229.2220 C             1 RES     
    1643 N          113.5908   138.2568   229.9804 N             1 RES     
    1644 C          119.7505   141.5847   229.3134 C             1 RES     
    1645 C          116.9642   141.4221   230.2035 C             1 RES     
    1646 H          111.5438   145.0371   228.4198 H             1 RES     
    1647 C          115.2294   144.4398   226.9408 C             1 RES     
    1648 H          122.0204   139.1572   229.8236 H             1 RES     
    1649 H          122.2289   140.5927   231.2947 H             1 RES     
    1650 H          118.1087   145.6335   223.2146 H             1 RES     
    1651 H          116.8455   149.6056   222.0480 H             1 RES     
    1652 H          122.7747   140.0915   223.5612 H             1 RES     
    1653 H          117.4312   148.6139   220.7339 H             1 RES     
    1654 H          118.3993   144.3416   222.8199 H             1 RES     
    1655 H          112.8949   138.5609   229.2844 H             1 RES     
    1656 C          107.2254   132.7735   236.5136 C             1 RES     
    1657 C          105.9407   130.8058   237.1709 C             1 RES     
    1658 C          101.8114   129.4766   238.9099 C             1 RES     
    1659 C          104.8842   135.6747   236.9221 C             1 RES     
    1660 C          106.6185   134.7117   236.3944 C             1 RES     
    1661 C          103.8622   131.6207   237.8485 C             1 RES     
    1662 H          106.1661   129.7613   237.2248 H             1 RES     
    1663 H          108.3578   131.9049   236.1104 H             1 RES     
    1664 C          103.3616   133.7650   237.7522 C             1 RES     
    1665 H          104.6639   136.7204   236.8661 H             1 RES     
    1666 O           92.4325   132.9558   244.5858 O             1 RES     
    1667 H          102.3835   134.0433   238.0851 H             1 RES     
    1668 C           99.1684   130.0346   239.9012 C             1 RES     
    1669 H          101.6600   128.7711   238.1199 H             1 RES     
    1670 H          102.2694   129.1070   239.8035 H             1 RES     
    1671 C           97.7195   128.0617   240.6460 C             1 RES     
    1672 C           94.9365   131.9016   242.1640 C             1 RES     
    1673 C           98.5020   132.9787   239.6951 C             1 RES     
    1674 C           95.4571   128.7470   241.3652 C             1 RES     
    1675 C           96.3223   133.4654   240.3269 C             1 RES     
    1676 H           95.7729   134.5937   240.2299 H             1 RES     
    1677 H           97.9691   127.0222   240.6900 H             1 RES     
    1678 H           94.4766   128.8091   241.2945 H             1 RES     
    1679 H           99.2532   133.6435   239.3224 H             1 RES     
    1680 O          108.7195   136.6516   235.3413 O             1 RES     
    1681 C          110.5235   135.9729   234.7494 C             1 RES     
    1682 H          111.8299   138.5750   234.2837 H             1 RES     
    1683 H          110.7980   133.1756   233.4537 H             1 RES     
    1684 C           91.6294   131.1769   245.7000 C             1 RES     
    1685 H           92.8360   128.9858   244.8339 H             1 RES     
    1686 H           88.7431   131.6674   247.3393 H             1 RES     
    1687 O           92.1559   129.0777   245.4908 O             1 RES     
    1688 H          111.0166   135.6796   235.6526 H             1 RES     
    1689 C          111.7042   137.7479   233.6166 C             1 RES     
    1690 H          111.1421   138.0613   232.7618 H             1 RES     
    1691 O          111.1062   133.4285   234.3160 O             1 RES     
    1692 C           89.6495   132.2248   247.4514 C             1 RES     
    1693 H           92.1029   130.2246   245.5822 H             1 RES     
    1694 H           89.4686   133.2518   247.2116 H             1 RES     
    1695 H           82.5861   134.2892   257.4217 H             1 RES     
    1696 H           82.4418   132.4028   263.7717 H             1 RES     
    1697 H           92.6147   134.4486   256.7441 H             1 RES     
    1698 C           84.2053   134.8716   253.1411 C             1 RES     
    1699 C           81.1042   136.8689   251.6017 C             1 RES     
    1700 C           92.2987   134.0283   257.6759 C             1 RES     
    1701 N           89.4912   132.2572   251.3137 N             1 RES     
    1702 C           81.8068   131.7707   263.1868 C             1 RES     
    1703 H           82.2551   130.8038   263.0924 H             1 RES     
    1704 C           88.4305   134.9537   255.7085 C             1 RES     
    1705 H           80.8199   132.4669   259.7293 H             1 RES     
    1706 C           81.4329   132.9816   260.4393 C             1 RES     
    1707 H           80.8556   131.6774   263.6678 H             1 RES     
    1708 C           85.4061   134.9773   255.7580 C             1 RES     
    1709 H           80.3478   136.1822   251.9198 H             1 RES     
    1710 C           85.2489   133.2073   259.7907 C             1 RES     
    1711 N           86.2421   129.1285   261.6685 N             1 RES     
    1712 C           89.4903   134.0181   257.7950 C             1 RES     
    1713 C           87.6371   133.1760   259.9019 C             1 RES     
    1714 H           80.9479   133.9350   260.4576 H             1 RES     
    1715 C           83.6517   134.2369   257.5036 C             1 RES     
    1716 H           92.6139   132.8185   257.4640 H             1 RES     
    1717 H           92.6877   134.6148   258.4819 H             1 RES     
    1718 H           84.0549   135.1508   252.7494 H             1 RES     
    1719 H           80.8071   137.8666   251.8493 H             1 RES     
    1720 H           90.4614   131.9803   251.5206 H             1 RES     
    1721 H           81.2363   136.7886   250.5429 H             1 RES     
    1722 H           84.7240   133.9872   252.4215 H             1 RES     
    1723 H           85.2806   128.9405   261.3505 H             1 RES     
    1724 C           85.9924   124.0658   271.0267 C             1 RES     
    1725 C           86.0818   122.0783   272.4395 C             1 RES     
    1726 C           83.9823   119.9964   276.0588 C             1 RES     
    1727 C           82.9416   125.9426   272.1383 C             1 RES     
    1728 C           84.5837   125.5329   270.9766 C             1 RES     
    1729 C           84.2834   122.2830   273.9116 C             1 RES     
    1730 H           86.7547   121.2490   272.5051 H             1 RES     
    1731 H           87.1505   123.5680   270.2454 H             1 RES     
    1732 C           82.8768   123.9766   273.8072 C             1 RES     
    1733 H           82.2717   126.7740   272.0683 H             1 RES     
    1734 O           76.9361   121.5511   285.0153 O             1 RES     
    1735 H           82.0830   123.9841   274.5247 H             1 RES     
    1736 C           81.9590   119.8734   278.1011 C             1 RES     
    1737 H           83.8812   119.0759   275.5230 H             1 RES     
    1738 H           84.8543   120.1043   276.6693 H             1 RES     
    1739 C           81.9504   117.8509   279.6683 C             1 RES     
    1740 C           78.5344   120.7461   281.8461 C             1 RES     
    1741 C           80.0171   122.1832   277.8832 C             1 RES     
    1742 C           80.0768   117.8895   281.2786 C             1 RES     
    1743 C           78.2670   122.0481   279.4020 C             1 RES     
    1744 H           77.2777   122.8251   279.4408 H             1 RES     
    1745 H           82.6370   117.0315   279.7133 H             1 RES     
    1746 H           79.2273   117.5806   281.6700 H             1 RES     
    1747 H           80.1876   122.9190   277.1252 H             1 RES     
    1748 O           85.0205   127.6587   268.8374 O             1 RES     
    1749 C           86.5672   127.5052   267.5531 C             1 RES     
    1750 H           86.2817   130.1208   266.2220 H             1 RES     
    1751 H           87.5633   124.7261   266.6239 H             1 RES     
    1752 C           77.5022   120.0394   286.5791 C             1 RES     
    1753 H           79.1421   118.2544   285.5156 H             1 RES     
    1754 H           75.5545   119.9713   289.3106 H             1 RES     
    1755 O           78.7951   118.3008   286.3988 O             1 RES     
    1756 H           87.4370   127.6957   268.1463 H             1 RES     
    1757 C           86.3022   129.1394   265.7961 C             1 RES     
    1758 H           85.3855   128.9575   265.2751 H             1 RES     
    1759 O           88.0221   125.3230   267.2032 O             1 RES     
    1760 H           78.2704   119.3255   286.3670 H             1 RES     
    1761 H           75.3823   121.5875   288.6693 H             1 RES     
    1762 H          151.3291   137.7817   217.0126 H             1 RES     
    1763 H           76.4493   121.1445   289.8924 H             1 RES     
@<TRIPOS>BOND
       1        1        2 1
       2        1        5 1
       3        1        8 1
       4        2        6 1
       5        2        7 1
       6        3        6 1
       7        3       13 1
       8        3       14 1
       9        3       15 1
      10        4        5 1
      11        4       10 1
      12        4        9 1
      13        5       25 1
      14        6        9 1
      15        9       12 1
      16       11       17 1
      17       11       35 1
      18       13       16 1
      19       13       18 1
      20       16       19 1
      21       16       22 1
      22       17       19 1
      23       17       20 1
      24       18       24 1
      25       18       20 1
      26       19       23 1
      27       20       21 1
      28       25       26 1
      29       26       27 1
      30       26       28 1
      31       26       29 1
      32       27       31 1
      33       27       61 1
      34       27       68 1
      35       30       50 1
      36       30       52 1
      37       30       57 1
      38       30       60 1
      39       31       56 1
      40       32       50 1
      41       33       50 1
      42       34       58 1
      43       35       36 1
      44       35       37 1
      45       35       38 1
      46       36       40 1
      47       36       41 1
      48       36       42 1
      49       38       39 1
      50       40       43 1
      51       40     1089 1
      52       43       45 1
      53       43       47 1
      54       44       59 1
      55       45       48 1
      56       45       50 1
      57       46       58 1
      58       47       54 1
      59       47       58 1
      60       48       51 1
      61       48       62 1
      62       49       63 1
      63       51       54 1
      64       51       55 1
      65       53       58 1
      66       54       59 1
      67       55       63 1
      68       55       64 1
      69       55       65 1
      70       56       69 1
      71       56       70 1
      72       56      354 1
      73       59      126 1
      74       63       67 1
      75       63       66 1
      76       71       72 1
      77       71       75 1
      78       71       78 1
      79       72       76 1
      80       72       77 1
      81       73       76 1
      82       73       83 1
      83       73       84 1
      84       73       85 1
      85       74       75 1
      86       74       80 1
      87       74       79 1
      88       75       95 1
      89       76       79 1
      90       79       82 1
      91       81       87 1
      92       81      105 1
      93       83       86 1
      94       83       88 1
      95       86       89 1
      96       86       92 1
      97       87       89 1
      98       87       90 1
      99       88       94 1
     100       88       90 1
     101       89       93 1
     102       90       91 1
     103       95       96 1
     104       96       97 1
     105       96       98 1
     106       96       99 1
     107       97      101 1
     108       97      131 1
     109       97      138 1
     110      100      120 1
     111      100      122 1
     112      100      127 1
     113      100      130 1
     114      101      126 1
     115      102      120 1
     116      103      120 1
     117      104      128 1
     118      105      106 1
     119      105      107 1
     120      105      108 1
     121      106      110 1
     122      106      111 1
     123      106      112 1
     124      108      109 1
     125      110      113 1
     126      110      139 1
     127      113      115 1
     128      113      117 1
     129      114      129 1
     130      115      118 1
     131      115      120 1
     132      116      128 1
     133      117      124 1
     134      117      128 1
     135      118      121 1
     136      118      132 1
     137      119      133 1
     138      121      124 1
     139      121      125 1
     140      123      128 1
     141      124      129 1
     142      125      133 1
     143      125      134 1
     144      125      135 1
     145      126      140 1
     146      126      141 1
     147      129      197 1
     148      133      137 1
     149      133      136 1
     150      142      143 1
     151      142      146 1
     152      142      149 1
     153      143      147 1
     154      143      148 1
     155      144      147 1
     156      144      154 1
     157      144      155 1
     158      144      156 1
     159      145      146 1
     160      145      151 1
     161      145      150 1
     162      146      166 1
     163      147      150 1
     164      150      153 1
     165      152      158 1
     166      152      176 1
     167      154      157 1
     168      154      159 1
     169      157      160 1
     170      157      163 1
     171      158      160 1
     172      158      161 1
     173      159      165 1
     174      159      161 1
     175      160      164 1
     176      161      162 1
     177      166      167 1
     178      167      168 1
     179      167      169 1
     180      167      170 1
     181      168      172 1
     182      168      202 1
     183      168      209 1
     184      171      191 1
     185      171      193 1
     186      171      198 1
     187      171      201 1
     188      172      197 1
     189      173      191 1
     190      174      191 1
     191      175      199 1
     192      176      177 1
     193      176      178 1
     194      176      179 1
     195      177      181 1
     196      177      182 1
     197      177      183 1
     198      179      180 1
     199      181      184 1
     200      181      210 1
     201      184      186 1
     202      184      188 1
     203      185      200 1
     204      186      189 1
     205      186      191 1
     206      187      199 1
     207      188      195 1
     208      188      199 1
     209      189      192 1
     210      189      203 1
     211      190      204 1
     212      192      195 1
     213      192      196 1
     214      194      199 1
     215      195      200 1
     216      196      204 1
     217      196      205 1
     218      196      206 1
     219      197      211 1
     220      197      212 1
     221      200      268 1
     222      204      208 1
     223      204      207 1
     224      213      214 1
     225      213      217 1
     226      213      220 1
     227      214      218 1
     228      214      219 1
     229      215      218 1
     230      215      225 1
     231      215      226 1
     232      215      227 1
     233      216      217 1
     234      216      222 1
     235      216      221 1
     236      217      237 1
     237      218      221 1
     238      221      224 1
     239      223      229 1
     240      223      247 1
     241      225      228 1
     242      225      230 1
     243      228      231 1
     244      228      234 1
     245      229      231 1
     246      229      232 1
     247      230      236 1
     248      230      232 1
     249      231      235 1
     250      232      233 1
     251      237      238 1
     252      238      239 1
     253      238      240 1
     254      238      241 1
     255      239      243 1
     256      239      273 1
     257      239      280 1
     258      242      262 1
     259      242      264 1
     260      242      269 1
     261      242      272 1
     262      243      268 1
     263      244      262 1
     264      245      262 1
     265      246      270 1
     266      247      248 1
     267      247      249 1
     268      247      250 1
     269      248      252 1
     270      248      253 1
     271      248      254 1
     272      250      251 1
     273      252      255 1
     274      252     1264 1
     275      255      257 1
     276      255      259 1
     277      256      271 1
     278      257      260 1
     279      257      262 1
     280      258      270 1
     281      259      266 1
     282      259      270 1
     283      260      263 1
     284      260      274 1
     285      261      275 1
     286      263      266 1
     287      263      267 1
     288      265      270 1
     289      266      271 1
     290      267      275 1
     291      267      276 1
     292      267      277 1
     293      268      281 1
     294      268      282 1
     295      271      338 1
     296      275      279 1
     297      275      278 1
     298      283      284 1
     299      283      287 1
     300      283      290 1
     301      284      288 1
     302      284      289 1
     303      285      288 1
     304      285      295 1
     305      285      296 1
     306      285      297 1
     307      286      287 1
     308      286      292 1
     309      286      291 1
     310      287      307 1
     311      288      291 1
     312      291      294 1
     313      293      299 1
     314      293      317 1
     315      295      298 1
     316      295      300 1
     317      298      301 1
     318      298      304 1
     319      299      301 1
     320      299      302 1
     321      300      306 1
     322      300      302 1
     323      301      305 1
     324      302      303 1
     325      307      308 1
     326      308      309 1
     327      308      310 1
     328      308      311 1
     329      309      313 1
     330      309      343 1
     331      309      350 1
     332      312      332 1
     333      312      334 1
     334      312      339 1
     335      312      342 1
     336      313      338 1
     337      314      332 1
     338      315      332 1
     339      316      340 1
     340      317      318 1
     341      317      319 1
     342      317      320 1
     343      318      322 1
     344      318      323 1
     345      318      324 1
     346      320      321 1
     347      322      325 1
     348      322      351 1
     349      325      327 1
     350      325      329 1
     351      326      341 1
     352      327      330 1
     353      327      332 1
     354      328      340 1
     355      329      336 1
     356      329      340 1
     357      330      333 1
     358      330      344 1
     359      331      345 1
     360      333      336 1
     361      333      337 1
     362      335      340 1
     363      336      341 1
     364      337      345 1
     365      337      346 1
     366      337      347 1
     367      338      352 1
     368      338      353 1
     369      341      355 1
     370      345      349 1
     371      345      348 1
     372      356      357 1
     373      356      360 1
     374      356      363 1
     375      357      361 1
     376      357      362 1
     377      358      361 1
     378      358      368 1
     379      358      369 1
     380      358      370 1
     381      359      360 1
     382      359      365 1
     383      359      364 1
     384      360      380 1
     385      361      364 1
     386      364      367 1
     387      366      372 1
     388      366      390 1
     389      368      371 1
     390      368      373 1
     391      371      374 1
     392      371      377 1
     393      372      374 1
     394      372      375 1
     395      373      379 1
     396      373      375 1
     397      374      378 1
     398      375      376 1
     399      380      381 1
     400      381      382 1
     401      381      383 1
     402      381      384 1
     403      382      386 1
     404      382      415 1
     405      382      422 1
     406      385      404 1
     407      385      406 1
     408      385      411 1
     409      385      414 1
     410      386      410 1
     411      387      404 1
     412      388      404 1
     413      389      412 1
     414      390      391 1
     415      390      392 1
     416      390      393 1
     417      391      395 1
     418      391      396 1
     419      391      397 1
     420      393      394 1
     421      395      398 1
     422      395     1227 1
     423      398      399 1
     424      398      401 1
     425      399      402 1
     426      399      404 1
     427      400      412 1
     428      401      408 1
     429      401      412 1
     430      402      405 1
     431      402      416 1
     432      403      417 1
     433      405      408 1
     434      405      409 1
     435      407      412 1
     436      408      413 1
     437      409      417 1
     438      409      418 1
     439      409      419 1
     440      410      423 1
     441      410      424 1
     442      410      707 1
     443      413      480 1
     444      413     1439 1
     445      417      421 1
     446      417      420 1
     447      425      426 1
     448      425      429 1
     449      425      432 1
     450      426      430 1
     451      426      431 1
     452      427      430 1
     453      427      437 1
     454      427      438 1
     455      427      439 1
     456      428      429 1
     457      428      434 1
     458      428      433 1
     459      429      449 1
     460      430      433 1
     461      433      436 1
     462      435      441 1
     463      435      459 1
     464      437      440 1
     465      437      442 1
     466      440      443 1
     467      440      446 1
     468      441      443 1
     469      441      444 1
     470      442      448 1
     471      442      444 1
     472      443      447 1
     473      444      445 1
     474      449      450 1
     475      450      451 1
     476      450      452 1
     477      450      453 1
     478      451      455 1
     479      451      485 1
     480      451      492 1
     481      454      474 1
     482      454      476 1
     483      454      481 1
     484      454      484 1
     485      455      480 1
     486      456      474 1
     487      457      474 1
     488      458      482 1
     489      459      460 1
     490      459      461 1
     491      459      462 1
     492      460      464 1
     493      460      465 1
     494      460      466 1
     495      462      463 1
     496      464      467 1
     497      464     1614 1
     498      467      469 1
     499      467      471 1
     500      468      483 1
     501      469      472 1
     502      469      474 1
     503      470      482 1
     504      471      478 1
     505      471      482 1
     506      472      475 1
     507      472      486 1
     508      473      487 1
     509      475      478 1
     510      475      479 1
     511      477      482 1
     512      478      483 1
     513      479      487 1
     514      479      488 1
     515      479      489 1
     516      480      493 1
     517      480      494 1
     518      483      550 1
     519      487      491 1
     520      487      490 1
     521      495      496 1
     522      495      499 1
     523      495      502 1
     524      496      500 1
     525      496      501 1
     526      497      500 1
     527      497      507 1
     528      497      508 1
     529      497      509 1
     530      498      499 1
     531      498      504 1
     532      498      503 1
     533      499      519 1
     534      500      503 1
     535      503      506 1
     536      505      511 1
     537      505      529 1
     538      507      510 1
     539      507      512 1
     540      510      513 1
     541      510      516 1
     542      511      513 1
     543      511      514 1
     544      512      518 1
     545      512      514 1
     546      513      517 1
     547      514      515 1
     548      519      520 1
     549      520      521 1
     550      520      522 1
     551      520      523 1
     552      521      525 1
     553      521      555 1
     554      521      562 1
     555      524      544 1
     556      524      546 1
     557      524      551 1
     558      524      554 1
     559      525      550 1
     560      526      544 1
     561      527      544 1
     562      528      552 1
     563      529      530 1
     564      529      531 1
     565      529      532 1
     566      530      534 1
     567      530      535 1
     568      530      536 1
     569      532      533 1
     570      534      537 1
     571      534      563 1
     572      537      539 1
     573      537      541 1
     574      538      553 1
     575      539      542 1
     576      539      544 1
     577      540      552 1
     578      541      548 1
     579      541      552 1
     580      542      545 1
     581      542      556 1
     582      543      557 1
     583      545      548 1
     584      545      549 1
     585      547      552 1
     586      548      553 1
     587      549      557 1
     588      549      558 1
     589      549      559 1
     590      550      564 1
     591      550      565 1
     592      553      621 1
     593      557      561 1
     594      557      560 1
     595      566      567 1
     596      566      570 1
     597      566      573 1
     598      567      571 1
     599      567      572 1
     600      568      571 1
     601      568      578 1
     602      568      579 1
     603      568      580 1
     604      569      570 1
     605      569      575 1
     606      569      574 1
     607      570      590 1
     608      571      574 1
     609      574      577 1
     610      576      582 1
     611      576      600 1
     612      578      581 1
     613      578      583 1
     614      581      584 1
     615      581      587 1
     616      582      584 1
     617      582      585 1
     618      583      589 1
     619      583      585 1
     620      584      588 1
     621      585      586 1
     622      590      591 1
     623      591      592 1
     624      591      593 1
     625      591      594 1
     626      592      596 1
     627      592      626 1
     628      592      633 1
     629      595      615 1
     630      595      617 1
     631      595      622 1
     632      595      625 1
     633      596      621 1
     634      597      615 1
     635      598      615 1
     636      599      623 1
     637      600      601 1
     638      600      602 1
     639      600      603 1
     640      601      605 1
     641      601      606 1
     642      601      607 1
     643      603      604 1
     644      605      608 1
     645      605     1402 1
     646      608      610 1
     647      608      612 1
     648      609      624 1
     649      610      613 1
     650      610      615 1
     651      611      623 1
     652      612      619 1
     653      612      623 1
     654      613      616 1
     655      613      627 1
     656      614      628 1
     657      616      619 1
     658      616      620 1
     659      618      623 1
     660      619      624 1
     661      620      628 1
     662      620      629 1
     663      620      630 1
     664      621      634 1
     665      621      635 1
     666      624      691 1
     667      628      632 1
     668      628      631 1
     669      636      637 1
     670      636      640 1
     671      636      643 1
     672      637      641 1
     673      637      642 1
     674      638      641 1
     675      638      648 1
     676      638      649 1
     677      638      650 1
     678      639      640 1
     679      639      645 1
     680      639      644 1
     681      640      660 1
     682      641      644 1
     683      644      647 1
     684      646      652 1
     685      646      670 1
     686      648      651 1
     687      648      653 1
     688      651      654 1
     689      651      657 1
     690      652      654 1
     691      652      655 1
     692      653      659 1
     693      653      655 1
     694      654      658 1
     695      655      656 1
     696      660      661 1
     697      661      662 1
     698      661      663 1
     699      661      664 1
     700      662      666 1
     701      662      696 1
     702      662      703 1
     703      665      685 1
     704      665      687 1
     705      665      692 1
     706      665      695 1
     707      666      691 1
     708      667      685 1
     709      668      685 1
     710      669      693 1
     711      670      671 1
     712      670      672 1
     713      670      673 1
     714      671      675 1
     715      671      676 1
     716      671      677 1
     717      673      674 1
     718      675      678 1
     719      675      704 1
     720      678      680 1
     721      678      682 1
     722      679      694 1
     723      680      683 1
     724      680      685 1
     725      681      693 1
     726      682      689 1
     727      682      693 1
     728      683      686 1
     729      683      697 1
     730      684      698 1
     731      686      689 1
     732      686      690 1
     733      688      693 1
     734      689      694 1
     735      690      698 1
     736      690      699 1
     737      690      700 1
     738      691      705 1
     739      691      706 1
     740      694      708 1
     741      698      702 1
     742      698      701 1
     743      709      710 1
     744      709      713 1
     745      709      716 1
     746      710      714 1
     747      710      715 1
     748      711      714 1
     749      711      721 1
     750      711      722 1
     751      711      723 1
     752      712      713 1
     753      712      718 1
     754      712      717 1
     755      713      733 1
     756      714      717 1
     757      717      720 1
     758      719      725 1
     759      719      743 1
     760      721      724 1
     761      721      726 1
     762      724      727 1
     763      724      730 1
     764      725      727 1
     765      725      728 1
     766      726      732 1
     767      726      728 1
     768      727      731 1
     769      728      729 1
     770      733      734 1
     771      734      735 1
     772      734      736 1
     773      734      737 1
     774      735      739 1
     775      735      768 1
     776      735      775 1
     777      738      757 1
     778      738      759 1
     779      738      764 1
     780      738      767 1
     781      739      763 1
     782      740      757 1
     783      741      757 1
     784      742      765 1
     785      743      744 1
     786      743      745 1
     787      743      746 1
     788      744      748 1
     789      744      749 1
     790      744      750 1
     791      746      747 1
     792      748      751 1
     793      748      776 1
     794      751      752 1
     795      751      754 1
     796      752      755 1
     797      752      757 1
     798      753      765 1
     799      754      761 1
     800      754      765 1
     801      755      758 1
     802      755      769 1
     803      756      770 1
     804      758      761 1
     805      758      762 1
     806      760      765 1
     807      761      766 1
     808      762      770 1
     809      762      771 1
     810      762      772 1
     811      763      777 1
     812      763      778 1
     813      763     1062 1
     814      766      834 1
     815      766     1577 1
     816      770      774 1
     817      770      773 1
     818      779      780 1
     819      779      783 1
     820      779      786 1
     821      780      784 1
     822      780      785 1
     823      781      784 1
     824      781      791 1
     825      781      792 1
     826      781      793 1
     827      782      783 1
     828      782      788 1
     829      782      787 1
     830      783      803 1
     831      784      787 1
     832      787      790 1
     833      789      795 1
     834      789      813 1
     835      791      794 1
     836      791      796 1
     837      794      797 1
     838      794      800 1
     839      795      797 1
     840      795      798 1
     841      796      802 1
     842      796      798 1
     843      797      801 1
     844      798      799 1
     845      803      804 1
     846      804      805 1
     847      804      806 1
     848      804      807 1
     849      805      809 1
     850      805      839 1
     851      805      846 1
     852      808      828 1
     853      808      830 1
     854      808      835 1
     855      808      838 1
     856      809      834 1
     857      810      828 1
     858      811      828 1
     859      812      836 1
     860      813      814 1
     861      813      815 1
     862      813      816 1
     863      814      818 1
     864      814      819 1
     865      814      820 1
     866      816      817 1
     867      818      821 1
     868      818     1752 1
     869      821      823 1
     870      821      825 1
     871      822      837 1
     872      823      826 1
     873      823      828 1
     874      824      836 1
     875      825      832 1
     876      825      836 1
     877      826      829 1
     878      826      840 1
     879      827      841 1
     880      829      832 1
     881      829      833 1
     882      831      836 1
     883      832      837 1
     884      833      841 1
     885      833      842 1
     886      833      843 1
     887      834      847 1
     888      834      848 1
     889      837      904 1
     890      841      845 1
     891      841      844 1
     892      849      850 1
     893      849      853 1
     894      849      856 1
     895      850      854 1
     896      850      855 1
     897      851      854 1
     898      851      861 1
     899      851      862 1
     900      851      863 1
     901      852      853 1
     902      852      858 1
     903      852      857 1
     904      853      873 1
     905      854      857 1
     906      857      860 1
     907      859      865 1
     908      859      883 1
     909      861      864 1
     910      861      866 1
     911      864      867 1
     912      864      870 1
     913      865      867 1
     914      865      868 1
     915      866      872 1
     916      866      868 1
     917      867      871 1
     918      868      869 1
     919      873      874 1
     920      874      875 1
     921      874      876 1
     922      874      877 1
     923      875      879 1
     924      875      909 1
     925      875      916 1
     926      878      898 1
     927      878      900 1
     928      878      905 1
     929      878      908 1
     930      879      904 1
     931      880      898 1
     932      881      898 1
     933      882      906 1
     934      883      884 1
     935      883      885 1
     936      883      886 1
     937      884      888 1
     938      884      889 1
     939      884      890 1
     940      886      887 1
     941      888      891 1
     942      888      917 1
     943      891      893 1
     944      891      895 1
     945      892      907 1
     946      893      896 1
     947      893      898 1
     948      894      906 1
     949      895      902 1
     950      895      906 1
     951      896      899 1
     952      896      910 1
     953      897      911 1
     954      899      902 1
     955      899      903 1
     956      901      906 1
     957      902      907 1
     958      903      911 1
     959      903      912 1
     960      903      913 1
     961      904      918 1
     962      904      919 1
     963      907      975 1
     964      911      915 1
     965      911      914 1
     966      920      921 1
     967      920      924 1
     968      920      927 1
     969      921      925 1
     970      921      926 1
     971      922      925 1
     972      922      932 1
     973      922      933 1
     974      922      934 1
     975      923      924 1
     976      923      929 1
     977      923      928 1
     978      924      944 1
     979      925      928 1
     980      928      931 1
     981      930      936 1
     982      930      954 1
     983      932      935 1
     984      932      937 1
     985      935      938 1
     986      935      941 1
     987      936      938 1
     988      936      939 1
     989      937      943 1
     990      937      939 1
     991      938      942 1
     992      939      940 1
     993      944      945 1
     994      945      946 1
     995      945      947 1
     996      945      948 1
     997      946      950 1
     998      946      980 1
     999      946      987 1
    1000      949      969 1
    1001      949      971 1
    1002      949      976 1
    1003      949      979 1
    1004      950      975 1
    1005      951      969 1
    1006      952      969 1
    1007      953      977 1
    1008      954      955 1
    1009      954      956 1
    1010      954      957 1
    1011      955      959 1
    1012      955      960 1
    1013      955      961 1
    1014      957      958 1
    1015      959      962 1
    1016      959      988 1
    1017      962      964 1
    1018      962      966 1
    1019      963      978 1
    1020      964      967 1
    1021      964      969 1
    1022      965      977 1
    1023      966      973 1
    1024      966      977 1
    1025      967      970 1
    1026      967      981 1
    1027      968      982 1
    1028      970      973 1
    1029      970      974 1
    1030      972      977 1
    1031      973      978 1
    1032      974      982 1
    1033      974      983 1
    1034      974      984 1
    1035      975      989 1
    1036      975      990 1
    1037      978     1046 1
    1038      982      986 1
    1039      982      985 1
    1040      991      992 1
    1041      991      995 1
    1042      991      998 1
    1043      992      996 1
    1044      992      997 1
    1045      993      996 1
    1046      993     1003 1
    1047      993     1004 1
    1048      993     1005 1
    1049      994      995 1
    1050      994     1000 1
    1051      994      999 1
    1052      995     1015 1
    1053      996      999 1
    1054      999     1002 1
    1055     1001     1007 1
    1056     1001     1025 1
    1057     1003     1006 1
    1058     1003     1008 1
    1059     1006     1009 1
    1060     1006     1012 1
    1061     1007     1009 1
    1062     1007     1010 1
    1063     1008     1014 1
    1064     1008     1010 1
    1065     1009     1013 1
    1066     1010     1011 1
    1067     1015     1016 1
    1068     1016     1017 1
    1069     1016     1018 1
    1070     1016     1019 1
    1071     1017     1021 1
    1072     1017     1051 1
    1073     1017     1058 1
    1074     1020     1040 1
    1075     1020     1042 1
    1076     1020     1047 1
    1077     1020     1050 1
    1078     1021     1046 1
    1079     1022     1040 1
    1080     1023     1040 1
    1081     1024     1048 1
    1082     1025     1026 1
    1083     1025     1027 1
    1084     1025     1028 1
    1085     1026     1030 1
    1086     1026     1031 1
    1087     1026     1032 1
    1088     1028     1029 1
    1089     1030     1033 1
    1090     1030     1059 1
    1091     1033     1035 1
    1092     1033     1037 1
    1093     1034     1049 1
    1094     1035     1038 1
    1095     1035     1040 1
    1096     1036     1048 1
    1097     1037     1044 1
    1098     1037     1048 1
    1099     1038     1041 1
    1100     1038     1052 1
    1101     1039     1053 1
    1102     1041     1044 1
    1103     1041     1045 1
    1104     1043     1048 1
    1105     1044     1049 1
    1106     1045     1053 1
    1107     1045     1054 1
    1108     1045     1055 1
    1109     1046     1060 1
    1110     1046     1061 1
    1111     1049     1063 1
    1112     1053     1057 1
    1113     1053     1056 1
    1114     1064     1065 1
    1115     1064     1068 1
    1116     1064     1071 1
    1117     1065     1069 1
    1118     1065     1070 1
    1119     1066     1069 1
    1120     1066     1076 1
    1121     1066     1077 1
    1122     1066     1078 1
    1123     1067     1068 1
    1124     1067     1073 1
    1125     1067     1072 1
    1126     1068     1088 1
    1127     1069     1072 1
    1128     1072     1075 1
    1129     1074     1080 1
    1130     1074     1092 1
    1131     1076     1079 1
    1132     1076     1081 1
    1133     1079     1082 1
    1134     1079     1085 1
    1135     1080     1082 1
    1136     1080     1083 1
    1137     1081     1087 1
    1138     1081     1083 1
    1139     1082     1086 1
    1140     1083     1084 1
    1141     1088     1089 1
    1142     1089     1096 1
    1143     1089     1098 1
    1144     1091     1098 1
    1145     1092     1095 1
    1146     1092     1099 1
    1147     1092     1100 1
    1148     1093     1095 1
    1149     1094     1099 1
    1150     1099     1101 1
    1151     1099     1108 1
    1152     1102     1122 1
    1153     1103     1109 1
    1154     1104     1107 1
    1155     1105     1125 1
    1156     1105     1115 1
    1157     1105     1106 1
    1158     1105     1129 1
    1159     1106     1116 1
    1160     1106     1128 1
    1161     1106     1126 1
    1162     1107     1119 1
    1163     1107     1123 1
    1164     1107     1124 1
    1165     1108     1111 1
    1166     1108     1127 1
    1167     1109     1110 1
    1168     1109     1114 1
    1169     1109     1113 1
    1170     1111     1115 1
    1171     1111     1119 1
    1172     1112     1113 1
    1173     1113     1121 1
    1174     1113     1117 1
    1175     1115     1122 1
    1176     1117     1122 1
    1177     1117     1120 1
    1178     1118     1120 1
    1179     1118     1130 1
    1180     1118     1164 1
    1181     1119     1120 1
    1182     1131     1132 1
    1183     1131     1135 1
    1184     1131     1138 1
    1185     1132     1136 1
    1186     1132     1137 1
    1187     1133     1136 1
    1188     1133     1143 1
    1189     1133     1144 1
    1190     1133     1145 1
    1191     1134     1135 1
    1192     1134     1140 1
    1193     1134     1139 1
    1194     1135     1155 1
    1195     1136     1139 1
    1196     1139     1142 1
    1197     1141     1147 1
    1198     1141     1159 1
    1199     1143     1146 1
    1200     1143     1148 1
    1201     1146     1149 1
    1202     1146     1152 1
    1203     1147     1149 1
    1204     1147     1150 1
    1205     1148     1154 1
    1206     1148     1150 1
    1207     1149     1153 1
    1208     1150     1151 1
    1209     1155     1156 1
    1210     1156     1163 1
    1211     1156     1164 1
    1212     1156     1166 1
    1213     1157     1164 1
    1214     1158     1166 1
    1215     1159     1162 1
    1216     1159     1167 1
    1217     1159     1168 1
    1218     1160     1162 1
    1219     1161     1167 1
    1220     1164     1165 1
    1221     1167     1169 1
    1222     1167     1176 1
    1223     1170     1190 1
    1224     1171     1177 1
    1225     1172     1175 1
    1226     1173     1193 1
    1227     1173     1183 1
    1228     1173     1174 1
    1229     1173     1197 1
    1230     1174     1184 1
    1231     1174     1196 1
    1232     1174     1194 1
    1233     1175     1187 1
    1234     1175     1191 1
    1235     1175     1192 1
    1236     1176     1179 1
    1237     1176     1195 1
    1238     1177     1178 1
    1239     1177     1182 1
    1240     1177     1181 1
    1241     1179     1183 1
    1242     1179     1187 1
    1243     1180     1181 1
    1244     1181     1189 1
    1245     1181     1185 1
    1246     1183     1190 1
    1247     1185     1190 1
    1248     1185     1188 1
    1249     1186     1188 1
    1250     1186     1198 1
    1251     1186     1232 1
    1252     1187     1188 1
    1253     1199     1200 1
    1254     1199     1203 1
    1255     1199     1206 1
    1256     1200     1204 1
    1257     1200     1205 1
    1258     1201     1204 1
    1259     1201     1211 1
    1260     1201     1212 1
    1261     1201     1213 1
    1262     1202     1203 1
    1263     1202     1208 1
    1264     1202     1207 1
    1265     1203     1223 1
    1266     1204     1207 1
    1267     1207     1210 1
    1268     1209     1215 1
    1269     1209     1227 1
    1270     1211     1214 1
    1271     1211     1216 1
    1272     1214     1217 1
    1273     1214     1220 1
    1274     1215     1217 1
    1275     1215     1218 1
    1276     1216     1222 1
    1277     1216     1218 1
    1278     1217     1221 1
    1279     1218     1219 1
    1280     1223     1224 1
    1281     1224     1231 1
    1282     1224     1232 1
    1283     1224     1234 1
    1284     1225     1232 1
    1285     1226     1234 1
    1286     1227     1230 1
    1287     1227     1235 1
    1288     1228     1230 1
    1289     1232     1233 1
    1290     1239     1240 1
    1291     1239     1243 1
    1292     1239     1246 1
    1293     1240     1244 1
    1294     1240     1245 1
    1295     1241     1244 1
    1296     1241     1251 1
    1297     1241     1252 1
    1298     1241     1253 1
    1299     1242     1243 1
    1300     1242     1248 1
    1301     1242     1247 1
    1302     1243     1263 1
    1303     1244     1247 1
    1304     1247     1250 1
    1305     1249     1255 1
    1306     1249     1267 1
    1307     1251     1254 1
    1308     1251     1256 1
    1309     1254     1257 1
    1310     1254     1260 1
    1311     1255     1257 1
    1312     1255     1258 1
    1313     1256     1262 1
    1314     1256     1258 1
    1315     1257     1261 1
    1316     1258     1259 1
    1317     1263     1264 1
    1318     1264     1271 1
    1319     1264     1273 1
    1320     1266     1273 1
    1321     1267     1270 1
    1322     1267     1274 1
    1323     1267     1275 1
    1324     1268     1270 1
    1325     1269     1274 1
    1326     1274     1276 1
    1327     1274     1283 1
    1328     1277     1297 1
    1329     1278     1284 1
    1330     1279     1282 1
    1331     1280     1300 1
    1332     1280     1290 1
    1333     1280     1281 1
    1334     1280     1304 1
    1335     1281     1291 1
    1336     1281     1303 1
    1337     1281     1301 1
    1338     1282     1294 1
    1339     1282     1298 1
    1340     1282     1299 1
    1341     1283     1286 1
    1342     1283     1302 1
    1343     1284     1285 1
    1344     1284     1289 1
    1345     1284     1288 1
    1346     1286     1290 1
    1347     1286     1294 1
    1348     1287     1288 1
    1349     1288     1296 1
    1350     1288     1292 1
    1351     1290     1297 1
    1352     1292     1297 1
    1353     1292     1295 1
    1354     1293     1295 1
    1355     1293     1305 1
    1356     1293     1339 1
    1357     1294     1295 1
    1358     1306     1307 1
    1359     1306     1310 1
    1360     1306     1313 1
    1361     1307     1311 1
    1362     1307     1312 1
    1363     1308     1311 1
    1364     1308     1318 1
    1365     1308     1319 1
    1366     1308     1320 1
    1367     1309     1310 1
    1368     1309     1315 1
    1369     1309     1314 1
    1370     1310     1330 1
    1371     1311     1314 1
    1372     1314     1317 1
    1373     1316     1322 1
    1374     1316     1334 1
    1375     1318     1321 1
    1376     1318     1323 1
    1377     1321     1324 1
    1378     1321     1327 1
    1379     1322     1324 1
    1380     1322     1325 1
    1381     1323     1329 1
    1382     1323     1325 1
    1383     1324     1328 1
    1384     1325     1326 1
    1385     1330     1331 1
    1386     1331     1338 1
    1387     1331     1339 1
    1388     1331     1341 1
    1389     1332     1339 1
    1390     1333     1341 1
    1391     1334     1337 1
    1392     1334     1342 1
    1393     1334     1343 1
    1394     1335     1337 1
    1395     1336     1342 1
    1396     1339     1340 1
    1397     1342     1344 1
    1398     1342     1351 1
    1399     1345     1365 1
    1400     1346     1352 1
    1401     1347     1350 1
    1402     1348     1368 1
    1403     1348     1358 1
    1404     1348     1349 1
    1405     1348     1372 1
    1406     1349     1359 1
    1407     1349     1371 1
    1408     1349     1369 1
    1409     1350     1362 1
    1410     1350     1366 1
    1411     1350     1367 1
    1412     1351     1354 1
    1413     1351     1370 1
    1414     1352     1353 1
    1415     1352     1357 1
    1416     1352     1356 1
    1417     1354     1358 1
    1418     1354     1362 1
    1419     1355     1356 1
    1420     1356     1364 1
    1421     1356     1360 1
    1422     1358     1365 1
    1423     1360     1365 1
    1424     1360     1363 1
    1425     1361     1363 1
    1426     1361     1373 1
    1427     1361     1407 1
    1428     1362     1363 1
    1429     1374     1375 1
    1430     1374     1378 1
    1431     1374     1381 1
    1432     1375     1379 1
    1433     1375     1380 1
    1434     1376     1379 1
    1435     1376     1386 1
    1436     1376     1387 1
    1437     1376     1388 1
    1438     1377     1378 1
    1439     1377     1383 1
    1440     1377     1382 1
    1441     1378     1398 1
    1442     1379     1382 1
    1443     1382     1385 1
    1444     1384     1390 1
    1445     1384     1402 1
    1446     1386     1389 1
    1447     1386     1391 1
    1448     1389     1392 1
    1449     1389     1395 1
    1450     1390     1392 1
    1451     1390     1393 1
    1452     1391     1397 1
    1453     1391     1393 1
    1454     1392     1396 1
    1455     1393     1394 1
    1456     1398     1399 1
    1457     1399     1406 1
    1458     1399     1407 1
    1459     1399     1409 1
    1460     1400     1407 1
    1461     1401     1409 1
    1462     1402     1405 1
    1463     1402     1410 1
    1464     1403     1405 1
    1465     1407     1408 1
    1466     1414     1415 1
    1467     1414     1418 1
    1468     1414     1421 1
    1469     1415     1419 1
    1470     1415     1420 1
    1471     1416     1419 1
    1472     1416     1426 1
    1473     1416     1427 1
    1474     1416     1428 1
    1475     1417     1418 1
    1476     1417     1423 1
    1477     1417     1422 1
    1478     1418     1438 1
    1479     1419     1422 1
    1480     1422     1425 1
    1481     1424     1430 1
    1482     1424     1442 1
    1483     1426     1429 1
    1484     1426     1431 1
    1485     1429     1432 1
    1486     1429     1435 1
    1487     1430     1432 1
    1488     1430     1433 1
    1489     1431     1437 1
    1490     1431     1433 1
    1491     1432     1436 1
    1492     1433     1434 1
    1493     1438     1439 1
    1494     1439     1446 1
    1495     1439     1448 1
    1496     1441     1448 1
    1497     1442     1445 1
    1498     1442     1449 1
    1499     1442     1450 1
    1500     1443     1445 1
    1501     1444     1449 1
    1502     1449     1451 1
    1503     1449     1458 1
    1504     1452     1472 1
    1505     1453     1459 1
    1506     1454     1457 1
    1507     1455     1475 1
    1508     1455     1465 1
    1509     1455     1456 1
    1510     1455     1479 1
    1511     1456     1466 1
    1512     1456     1478 1
    1513     1456     1476 1
    1514     1457     1469 1
    1515     1457     1473 1
    1516     1457     1474 1
    1517     1458     1461 1
    1518     1458     1477 1
    1519     1459     1460 1
    1520     1459     1464 1
    1521     1459     1463 1
    1522     1461     1465 1
    1523     1461     1469 1
    1524     1462     1463 1
    1525     1463     1471 1
    1526     1463     1467 1
    1527     1465     1472 1
    1528     1467     1472 1
    1529     1467     1470 1
    1530     1468     1470 1
    1531     1468     1480 1
    1532     1468     1514 1
    1533     1469     1470 1
    1534     1481     1482 1
    1535     1481     1485 1
    1536     1481     1488 1
    1537     1482     1486 1
    1538     1482     1487 1
    1539     1483     1486 1
    1540     1483     1493 1
    1541     1483     1494 1
    1542     1483     1495 1
    1543     1484     1485 1
    1544     1484     1490 1
    1545     1484     1489 1
    1546     1485     1505 1
    1547     1486     1489 1
    1548     1489     1492 1
    1549     1491     1497 1
    1550     1491     1509 1
    1551     1493     1496 1
    1552     1493     1498 1
    1553     1496     1499 1
    1554     1496     1502 1
    1555     1497     1499 1
    1556     1497     1500 1
    1557     1498     1504 1
    1558     1498     1500 1
    1559     1499     1503 1
    1560     1500     1501 1
    1561     1505     1506 1
    1562     1506     1513 1
    1563     1506     1514 1
    1564     1506     1516 1
    1565     1507     1514 1
    1566     1508     1516 1
    1567     1509     1512 1
    1568     1509     1517 1
    1569     1509     1518 1
    1570     1510     1512 1
    1571     1511     1517 1
    1572     1514     1515 1
    1573     1517     1519 1
    1574     1517     1526 1
    1575     1520     1540 1
    1576     1521     1527 1
    1577     1522     1525 1
    1578     1523     1543 1
    1579     1523     1533 1
    1580     1523     1524 1
    1581     1523     1547 1
    1582     1524     1534 1
    1583     1524     1546 1
    1584     1524     1544 1
    1585     1525     1537 1
    1586     1525     1541 1
    1587     1525     1542 1
    1588     1526     1529 1
    1589     1526     1545 1
    1590     1527     1528 1
    1591     1527     1532 1
    1592     1527     1531 1
    1593     1529     1533 1
    1594     1529     1537 1
    1595     1530     1531 1
    1596     1531     1539 1
    1597     1531     1535 1
    1598     1533     1540 1
    1599     1535     1540 1
    1600     1535     1538 1
    1601     1536     1538 1
    1602     1536     1548 1
    1603     1536     1582 1
    1604     1537     1538 1
    1605     1549     1550 1
    1606     1549     1553 1
    1607     1549     1556 1
    1608     1550     1554 1
    1609     1550     1555 1
    1610     1551     1554 1
    1611     1551     1561 1
    1612     1551     1562 1
    1613     1551     1563 1
    1614     1552     1553 1
    1615     1552     1558 1
    1616     1552     1557 1
    1617     1553     1573 1
    1618     1554     1557 1
    1619     1557     1560 1
    1620     1559     1565 1
    1621     1559     1577 1
    1622     1561     1564 1
    1623     1561     1566 1
    1624     1564     1567 1
    1625     1564     1570 1
    1626     1565     1567 1
    1627     1565     1568 1
    1628     1566     1572 1
    1629     1566     1568 1
    1630     1567     1571 1
    1631     1568     1569 1
    1632     1573     1574 1
    1633     1574     1581 1
    1634     1574     1582 1
    1635     1574     1584 1
    1636     1575     1582 1
    1637     1576     1584 1
    1638     1577     1580 1
    1639     1577     1585 1
    1640     1578     1580 1
    1641     1582     1583 1
    1642     1589     1590 1
    1643     1589     1593 1
    1644     1589     1596 1
    1645     1590     1594 1
    1646     1590     1595 1
    1647     1591     1594 1
    1648     1591     1601 1
    1649     1591     1602 1
    1650     1591     1603 1
    1651     1592     1593 1
    1652     1592     1598 1
    1653     1592     1597 1
    1654     1593     1613 1
    1655     1594     1597 1
    1656     1597     1600 1
    1657     1599     1605 1
    1658     1599     1617 1
    1659     1601     1604 1
    1660     1601     1606 1
    1661     1604     1607 1
    1662     1604     1610 1
    1663     1605     1607 1
    1664     1605     1608 1
    1665     1606     1612 1
    1666     1606     1608 1
    1667     1607     1611 1
    1668     1608     1609 1
    1669     1613     1614 1
    1670     1614     1621 1
    1671     1614     1623 1
    1672     1616     1623 1
    1673     1617     1620 1
    1674     1617     1624 1
    1675     1617     1625 1
    1676     1618     1620 1
    1677     1619     1624 1
    1678     1624     1626 1
    1679     1624     1633 1
    1680     1627     1647 1
    1681     1628     1634 1
    1682     1629     1632 1
    1683     1630     1650 1
    1684     1630     1640 1
    1685     1630     1631 1
    1686     1630     1654 1
    1687     1631     1641 1
    1688     1631     1653 1
    1689     1631     1651 1
    1690     1632     1644 1
    1691     1632     1648 1
    1692     1632     1649 1
    1693     1633     1636 1
    1694     1633     1652 1
    1695     1634     1635 1
    1696     1634     1639 1
    1697     1634     1638 1
    1698     1636     1640 1
    1699     1636     1644 1
    1700     1637     1638 1
    1701     1638     1646 1
    1702     1638     1642 1
    1703     1640     1647 1
    1704     1642     1647 1
    1705     1642     1645 1
    1706     1643     1645 1
    1707     1643     1655 1
    1708     1643     1689 1
    1709     1644     1645 1
    1710     1656     1657 1
    1711     1656     1660 1
    1712     1656     1663 1
    1713     1657     1661 1
    1714     1657     1662 1
    1715     1658     1661 1
    1716     1658     1668 1
    1717     1658     1669 1
    1718     1658     1670 1
    1719     1659     1660 1
    1720     1659     1665 1
    1721     1659     1664 1
    1722     1660     1680 1
    1723     1661     1664 1
    1724     1664     1667 1
    1725     1666     1672 1
    1726     1666     1684 1
    1727     1668     1671 1
    1728     1668     1673 1
    1729     1671     1674 1
    1730     1671     1677 1
    1731     1672     1674 1
    1732     1672     1675 1
    1733     1673     1679 1
    1734     1673     1675 1
    1735     1674     1678 1
    1736     1675     1676 1
    1737     1680     1681 1
    1738     1681     1688 1
    1739     1681     1689 1
    1740     1681     1691 1
    1741     1682     1689 1
    1742     1683     1691 1
    1743     1684     1687 1
    1744     1684     1692 1
    1745     1684     1693 1
    1746     1685     1687 1
    1747     1686     1692 1
    1748     1689     1690 1
    1749     1692     1694 1
    1750     1692     1701 1
    1751     1695     1715 1
    1752     1696     1702 1
    1753     1697     1700 1
    1754     1698     1718 1
    1755     1698     1708 1
    1756     1698     1699 1
    1757     1698     1722 1
    1758     1699     1709 1
    1759     1699     1721 1
    1760     1699     1719 1
    1761     1700     1712 1
    1762     1700     1716 1
    1763     1700     1717 1
    1764     1701     1704 1
    1765     1701     1720 1
    1766     1702     1703 1
    1767     1702     1707 1
    1768     1702     1706 1
    1769     1704     1708 1
    1770     1704     1712 1
    1771     1705     1706 1
    1772     1706     1714 1
    1773     1706     1710 1
    1774     1708     1715 1
    1775     1710     1715 1
    1776     1710     1713 1
    1777     1711     1713 1
    1778     1711     1723 1
    1779     1711     1757 1
    1780     1712     1713 1
    1781     1724     1725 1
    1782     1724     1728 1
    1783     1724     1731 1
    1784     1725     1729 1
    1785     1725     1730 1
    1786     1726     1729 1
    1787     1726     1736 1
    1788     1726     1737 1
    1789     1726     1738 1
    1790     1727     1728 1
    1791     1727     1733 1
    1792     1727     1732 1
    1793     1728     1748 1
    1794     1729     1732 1
    1795     1732     1735 1
    1796     1734     1740 1
    1797     1734     1752 1
    1798     1736     1739 1
    1799     1736     1741 1
    1800     1739     1742 1
    1801     1739     1745 1
    1802     1740     1742 1
    1803     1740     1743 1
    1804     1741     1747 1
    1805     1741     1743 1
    1806     1742     1746 1
    1807     1743     1744 1
    1808     1748     1749 1
    1809     1749     1756 1
    1810     1749     1757 1
    1811     1749     1759 1
    1812     1750     1757 1
    1813     1751     1759 1
    1814     1752     1755 1
    1815     1752     1760 1
    1816     1753     1755 1
    1817     1757     1758 1
@<TRIPOS>SUBSTRUCTURE
       1 RES             1 RESIDUE    0 **** ROOT      0
