@<TRIPOS>MOLECULE
RES
732 748 1 0 1
SMALL
NO_CHARGES
@<TRIPOS>CRYSIN
   28.6346    36.6051    52.1541    90.0000    90.0000    90.0000 1 1
@<TRIPOS>ATOM
       1 C           24.1919    22.1731    23.3192 C             1 RES     
       2 C           23.6564    21.6649    21.9723 C             1 RES     
       3 N           22.1912    21.6547    21.9720 N             1 RES     
       4 C           21.6944    21.1723    20.6798 C             1 RES     
       5 C           20.1593    21.1638    20.6700 C             1 RES     
       6 N           19.6623    20.6743    19.3811 N             1 RES     
       7 C           18.1974    20.6809    19.3728 C             1 RES     
       8 C           17.6602    20.1749    18.0255 C             1 RES     
       9 N           16.1983    20.1681    18.0130 N             1 RES     
      10 N           25.6539    22.1875    23.3290 N             1 RES     
      11 H           23.8309    21.5331    24.1328 H             1 RES     
      12 H           23.8253    23.1883    23.5084 H             1 RES     
      13 H           24.0309    20.6490    21.7958 H             1 RES     
      14 H           24.0281    22.3083    21.1651 H             1 RES     
      15 H           21.8522    22.6059    22.1214 H             1 RES     
      16 H           22.0622    20.1548    20.4981 H             1 RES     
      17 H           22.0607    21.8153    19.8695 H             1 RES     
      18 H           19.7921    22.1822    20.8477 H             1 RES     
      19 H           19.7925    20.5244    21.4828 H             1 RES     
      20 H           20.0012    19.7248    19.2295 H             1 RES     
      21 H           17.8292    21.6991    19.5476 H             1 RES     
      22 H           17.8190    20.0407    20.1796 H             1 RES     
      23 H           18.0246    19.1588    17.8338 H             1 RES     
      24 H           18.0233    20.8157    17.2144 H             1 RES     
      25 H           25.9761    22.4840    24.2496 H             1 RES     
      26 C           24.8633    18.6778    24.5845 C             1 RES     
      27 C           24.2248    17.5958    25.2046 C             1 RES     
      28 C           24.7402    16.3015    25.0279 C             1 RES     
      29 C           25.8062    16.0675    24.1429 C             1 RES     
      30 C           26.4129    17.1580    23.5045 C             1 RES     
      31 C           25.9500    18.4669    23.7255 C             1 RES     
      32 C           26.5876    19.6046    22.9803 C             1 RES     
      33 O           27.5105    19.3190    22.2169 O             1 RES     
      34 C           26.2035    14.6502    23.8369 C             1 RES     
      35 O           25.5951    13.7603    24.4311 O             1 RES     
      36 C           22.9388    17.7821    25.9601 C             1 RES     
      37 O           22.4166    16.7734    26.4351 O             1 RES     
      38 H           24.4972    19.6859    24.7525 H             1 RES     
      39 H           24.2801    15.4619    25.5535 H             1 RES     
      40 H           27.2414    17.0063    22.8136 H             1 RES     
      41 H           15.8277    19.4914    18.7887 H             1 RES     
      42 H           26.9786    14.4468    23.0922 H             1 RES     
      43 C           23.6703    29.9067    25.6625 C             1 RES     
      44 C           24.2505    28.4910    25.5259 C             1 RES     
      45 N           23.2175    27.4846    25.7846 N             1 RES     
      46 C           23.7838    26.1394    25.6463 C             1 RES     
      47 C           22.7057    25.0789    25.9108 C             1 RES     
      48 N           23.2732    23.7341    25.7803 N             1 RES     
      49 C           22.2372    22.7266    26.0206 C             1 RES     
      50 C           22.8153    21.3101    25.8823 C             1 RES     
      51 N           21.7898    20.2985    26.1315 N             1 RES     
      52 N           24.6939    30.9185    25.4054 N             1 RES     
      53 H           23.2642    30.0508    26.6705 H             1 RES     
      54 H           22.8483    30.0442    24.9511 H             1 RES     
      55 H           25.0715    28.3674    26.2428 H             1 RES     
      56 H           24.6592    28.3595    24.5163 H             1 RES     
      57 H           22.4655    27.5974    25.1036 H             1 RES     
      58 H           24.6036    26.0072    26.3632 H             1 RES     
      59 H           24.1905    26.0019    24.6364 H             1 RES     
      60 H           21.8879    25.2090    25.1911 H             1 RES     
      61 H           22.2955    25.2187    26.9190 H             1 RES     
      62 H           24.0256    23.6200    26.4588 H             1 RES     
      63 H           21.4204    22.8540    25.2998 H             1 RES     
      64 H           21.8225    22.8541    27.0284 H             1 RES     
      65 H           23.6376    21.1692    26.5936 H             1 RES     
      66 H           23.2213    21.1694    24.8744 H             1 RES     
      67 H           24.2894    31.8430    25.5496 H             1 RES     
      68 C           25.0446    30.3361    29.1547 C             1 RES     
      69 C           24.7469    30.0451    30.4926 C             1 RES     
      70 C           25.7940    29.9468    31.4231 C             1 RES     
      71 C           27.1342    30.0134    31.0060 C             1 RES     
      72 C           27.4154    30.2722    29.6574 C             1 RES     
      73 C           26.3748    30.4406    28.7272 C             1 RES     
      74 C           26.7144    30.6598    27.2805 C             1 RES     
      75 O           27.9106    30.6982    26.9917 O             1 RES     
      76 C           28.2234    29.7144    31.9982 C             1 RES     
      77 O           27.8740    29.4755    33.1541 O             1 RES     
      78 C           23.3426    29.7273    30.9242 C             1 RES     
      79 O           23.1727    29.4357    32.1082 O             1 RES     
      80 H           24.2375    30.4577    28.4389 H             1 RES     
      81 H           25.5640    29.7755    32.4769 H             1 RES     
      82 H           28.4449    30.3296    29.3060 H             1 RES     
      83 H           21.4141    20.4008    27.1538 H             1 RES     
      84 C           18.5283    33.1252    20.2985 C             1 RES     
      85 C           19.6546    33.0675    21.3414 C             1 RES     
      86 N           19.2389    32.2791    22.5043 N             1 RES     
      87 C           20.3244    32.2287    23.4885 C             1 RES     
      88 C           19.8981    31.3995    24.7082 C             1 RES     
      89 N           20.9800    31.3554    25.6956 N             1 RES     
      90 C           20.5727    30.5521    26.8510 C             1 RES     
      91 C           21.6988    30.4916    27.8941 C             1 RES     
      92 N           21.2959    29.7005    29.0555 N             1 RES     
      93 N           18.9340    33.9097    19.1334 N             1 RES     
      94 H           17.6296    33.5715    20.7402 H             1 RES     
      95 H           18.2690    32.1119    19.9718 H             1 RES     
      96 H           19.9040    34.0874    21.6591 H             1 RES     
      97 H           20.5502    32.6251    20.8878 H             1 RES     
      98 H           19.0239    31.3283    22.2016 H             1 RES     
      99 H           20.5768    33.2456    23.8138 H             1 RES     
     100 H           21.2215    31.7832    23.0402 H             1 RES     
     101 H           19.6496    30.3816    24.3830 H             1 RES     
     102 H           18.9985    31.8421    25.1543 H             1 RES     
     103 H           21.1973    32.3045    25.9981 H             1 RES     
     104 H           20.3266    29.5334    26.5274 H             1 RES     
     105 H           19.6756    30.9882    27.3082 H             1 RES     
     106 H           21.9600    31.5041    28.2237 H             1 RES     
     107 H           22.5957    30.0462    27.4497 H             1 RES     
     108 H           18.1506    33.9674    18.4837 H             1 RES     
     109 C           17.4165    36.5588    21.4135 C             1 RES     
     110 C           16.6132    37.1931    22.3703 C             1 RES     
     111 C           16.8957    38.5201    22.7329 C             1 RES     
     112 C           18.0405    39.1706    22.2422 C             1 RES     
     113 C           18.8525    38.5094    21.3104 C             1 RES     
     114 C           18.5428    37.2050    20.8871 C             1 RES     
     115 C           19.4671    36.5068    19.9310 C             1 RES     
     116 O           20.4533    37.1390    19.5520 O             1 RES     
     117 C           18.4102    40.5172    22.7993 C             1 RES     
     118 O           17.6453    41.0053    23.6309 O             1 RES     
     119 C           15.5289    36.4444    23.0936 C             1 RES     
     120 O           14.8998    37.0612    23.9535 O             1 RES     
     121 H           17.1773    35.5487    21.0956 H             1 RES     
     122 H           16.2399    39.0376    23.4363 H             1 RES     
     123 H           19.7459    38.9896    20.9129 H             1 RES     
     124 H           20.4300    30.1667    29.5348 H             1 RES     
     125 C           16.3320    26.7664    15.7915 C             1 RES     
     126 C           16.5912    28.2346    16.1610 C             1 RES     
     127 N           16.0245    28.5417    17.4768 N             1 RES     
     128 C           16.2833    29.9438    17.8182 C             1 RES     
     129 C           15.6968    30.2719    19.1985 C             1 RES     
     130 N           15.9485    31.6754    19.5368 N             1 RES     
     131 C           15.3985    31.9791    20.8602 C             1 RES     
     132 C           15.6588    33.4466    21.2322 C             1 RES     
     133 N           15.1031    33.7607    22.5475 N             1 RES     
     134 N           16.8946    26.4501    14.4796 N             1 RES     
     135 H           15.2542    26.5663    15.7807 H             1 RES     
     136 H           16.7843    26.1068    16.5405 H             1 RES     
     137 H           16.1337    28.8830    15.4036 H             1 RES     
     138 H           17.6716    28.4256    16.1630 H             1 RES     
     139 H           16.4669    27.9448    18.1768 H             1 RES     
     140 H           15.8253    30.5986    17.0666 H             1 RES     
     141 H           17.3632    30.1386    17.8252 H             1 RES     
     142 H           16.1581    29.6195    19.9504 H             1 RES     
     143 H           14.6176    30.0731    19.1934 H             1 RES     
     144 H           15.5086    32.2731    18.8378 H             1 RES     
     145 H           15.8610    31.3294    21.6131 H             1 RES     
     146 H           14.3180    31.7880    20.8656 H             1 RES     
     147 H           15.2066    34.1093    20.4850 H             1 RES     
     148 H           16.7365    33.6440    21.2411 H             1 RES     
     149 H           16.6653    25.4849    14.2448 H             1 RES     
     150 C           13.3852    27.6433    13.5968 C             1 RES     
     151 C           12.0109    27.9080    13.6624 C             1 RES     
     152 C           11.4134    28.6881    12.6592 C             1 RES     
     153 C           12.1951    29.3039    11.6671 C             1 RES     
     154 C           13.5742    29.0554    11.6352 C             1 RES     
     155 C           14.1751    28.2210    12.5940 C             1 RES     
     156 C           15.6637    28.0233    12.5627 C             1 RES     
     157 O           16.2809    28.6020    11.6681 O             1 RES     
     158 C           11.5453    30.2815    10.7278 C             1 RES     
     159 O           10.3321    30.4497    10.8502 O             1 RES     
     160 C           11.1906    27.4673    14.8424 C             1 RES     
     161 O           10.0000    27.7806    14.8457 O             1 RES     
     162 H           13.8456    27.0044    14.3441 H             1 RES     
     163 H           10.3336    28.8511    12.6748 H             1 RES     
     164 H           14.2046    29.5190    10.8773 H             1 RES     
     165 H           14.0192    33.6137    22.5326 H             1 RES     
     166 H           12.1519    30.8284    10.0000 H             1 RES     
     167 C           20.0975    20.5615    19.3818 C             1 RES     
     168 C           19.4159    21.3665    18.2653 C             1 RES     
     169 N           18.1630    21.9545    18.7464 N             1 RES     
     170 C           17.5262    22.7232    17.6727 C             1 RES     
     171 C           16.2149    23.3469    18.1710 C             1 RES     
     172 N           15.5741    24.1089    17.0956 N             1 RES     
     173 C           14.3305    24.7127    17.5805 C             1 RES     
     174 C           13.6485    25.5200    16.4656 C             1 RES     
     175 N           12.4006    26.1169    16.9386 N             1 RES     
     176 N           21.3495    19.9711    18.9112 N             1 RES     
     177 H           19.4306    19.7647    19.7315 H             1 RES     
     178 H           20.3112    21.2137    20.2360 H             1 RES     
     179 H           19.2081    20.7022    17.4174 H             1 RES     
     180 H           20.0934    22.1568    17.9188 H             1 RES     
     181 H           18.3678    22.5824    19.5247 H             1 RES     
     182 H           17.3120    22.0641    16.8222 H             1 RES     
     183 H           18.1990    23.5175    17.3254 H             1 RES     
     184 H           16.4301    24.0090    19.0189 H             1 RES     
     185 H           15.5434    22.5533    18.5224 H             1 RES     
     186 H           15.3701    23.4836    16.3167 H             1 RES     
     187 H           14.5448    25.3770    18.4265 H             1 RES     
     188 H           13.6489    23.9274    17.9308 H             1 RES     
     189 H           13.4326    24.8699    15.6097 H             1 RES     
     190 H           14.3176    26.3147    16.1175 H             1 RES     
     191 H           21.7515    19.4071    19.6592 H             1 RES     
     192 C           18.8012    17.2699    18.0574 C             1 RES     
     193 C           17.6724    16.4409    18.0982 C             1 RES     
     194 C           17.4389    15.5467    17.0409 C             1 RES     
     195 C           18.2506    15.5628    15.8939 C             1 RES     
     196 C           19.3572    16.4222    15.8552 C             1 RES     
     197 C           19.6418    17.2746    16.9364 C             1 RES     
     198 C           20.8026    18.2224    16.8357 C             1 RES     
     199 O           21.4618    18.1828    15.7965 O             1 RES     
     200 C           17.8559    14.7268    14.7084 C             1 RES     
     201 O           16.8542    14.0223    14.8320 O             1 RES     
     202 C           16.6523    16.5714    19.1945 C             1 RES     
     203 O           15.6653    15.8381    19.1317 O             1 RES     
     204 H           19.0122    17.9318    18.8917 H             1 RES     
     205 H           16.5918    14.8594    17.0937 H             1 RES     
     206 H           20.0039    16.4555    14.9792 H             1 RES     
     207 H           11.7076    25.3267    17.2419 H             1 RES     
     208 H           18.4317    14.7857    13.7801 H             1 RES     
     209 H           15.8507    19.7664    17.0567 H             1 RES     
     210 H           16.7842    17.3267    19.9748 H             1 RES     
     211 C           24.1919    22.1731    35.3192 C             1 RES     
     212 C           23.6564    21.6649    33.9723 C             1 RES     
     213 N           22.1912    21.6547    33.9720 N             1 RES     
     214 C           21.6944    21.1723    32.6798 C             1 RES     
     215 C           20.1593    21.1638    32.6700 C             1 RES     
     216 N           19.6623    20.6743    31.3811 N             1 RES     
     217 C           18.1974    20.6809    31.3728 C             1 RES     
     218 C           17.6602    20.1749    30.0255 C             1 RES     
     219 N           16.1983    20.1681    30.0130 N             1 RES     
     220 N           25.6539    22.1875    35.3290 N             1 RES     
     221 H           23.8309    21.5331    36.1328 H             1 RES     
     222 H           23.8253    23.1883    35.5084 H             1 RES     
     223 H           24.0309    20.6490    33.7958 H             1 RES     
     224 H           24.0281    22.3083    33.1651 H             1 RES     
     225 H           21.8522    22.6059    34.1214 H             1 RES     
     226 H           22.0622    20.1548    32.4981 H             1 RES     
     227 H           22.0607    21.8153    31.8695 H             1 RES     
     228 H           19.7921    22.1822    32.8477 H             1 RES     
     229 H           19.7925    20.5244    33.4828 H             1 RES     
     230 H           20.0012    19.7248    31.2295 H             1 RES     
     231 H           17.8292    21.6991    31.5476 H             1 RES     
     232 H           17.8190    20.0407    32.1796 H             1 RES     
     233 H           18.0246    19.1588    29.8338 H             1 RES     
     234 H           18.0233    20.8157    29.2144 H             1 RES     
     235 H           25.9761    22.4840    36.2496 H             1 RES     
     236 C           24.8633    18.6778    36.5845 C             1 RES     
     237 C           24.2248    17.5958    37.2046 C             1 RES     
     238 C           24.7402    16.3015    37.0279 C             1 RES     
     239 C           25.8062    16.0675    36.1429 C             1 RES     
     240 C           26.4129    17.1580    35.5045 C             1 RES     
     241 C           25.9500    18.4669    35.7255 C             1 RES     
     242 C           26.5876    19.6046    34.9803 C             1 RES     
     243 O           27.5105    19.3190    34.2169 O             1 RES     
     244 C           26.2035    14.6502    35.8369 C             1 RES     
     245 O           25.5951    13.7603    36.4311 O             1 RES     
     246 C           22.9388    17.7821    37.9601 C             1 RES     
     247 O           22.4166    16.7734    38.4351 O             1 RES     
     248 H           24.4972    19.6859    36.7525 H             1 RES     
     249 H           24.2801    15.4619    37.5535 H             1 RES     
     250 H           27.2414    17.0063    34.8136 H             1 RES     
     251 H           15.8277    19.4914    30.7887 H             1 RES     
     252 C           23.6703    29.9067    37.6625 C             1 RES     
     253 C           24.2505    28.4910    37.5259 C             1 RES     
     254 N           23.2175    27.4846    37.7846 N             1 RES     
     255 C           23.7838    26.1394    37.6463 C             1 RES     
     256 C           22.7057    25.0789    37.9108 C             1 RES     
     257 N           23.2732    23.7341    37.7803 N             1 RES     
     258 C           22.2372    22.7266    38.0206 C             1 RES     
     259 C           22.8153    21.3101    37.8823 C             1 RES     
     260 N           21.7898    20.2985    38.1315 N             1 RES     
     261 N           24.6939    30.9185    37.4054 N             1 RES     
     262 H           23.2642    30.0508    38.6705 H             1 RES     
     263 H           22.8483    30.0442    36.9511 H             1 RES     
     264 H           25.0715    28.3674    38.2428 H             1 RES     
     265 H           24.6592    28.3595    36.5163 H             1 RES     
     266 H           22.4655    27.5974    37.1036 H             1 RES     
     267 H           24.6036    26.0072    38.3632 H             1 RES     
     268 H           24.1905    26.0019    36.6364 H             1 RES     
     269 H           21.8879    25.2090    37.1911 H             1 RES     
     270 H           22.2955    25.2187    38.9190 H             1 RES     
     271 H           24.0256    23.6200    38.4588 H             1 RES     
     272 H           21.4204    22.8540    37.2998 H             1 RES     
     273 H           21.8225    22.8541    39.0284 H             1 RES     
     274 H           23.6376    21.1692    38.5936 H             1 RES     
     275 H           23.2213    21.1694    36.8744 H             1 RES     
     276 H           24.2894    31.8430    37.5496 H             1 RES     
     277 C           25.0446    30.3361    41.1547 C             1 RES     
     278 C           24.7469    30.0451    42.4926 C             1 RES     
     279 C           25.7940    29.9468    43.4231 C             1 RES     
     280 C           27.1342    30.0134    43.0060 C             1 RES     
     281 C           27.4154    30.2722    41.6574 C             1 RES     
     282 C           26.3748    30.4406    40.7272 C             1 RES     
     283 C           26.7144    30.6598    39.2805 C             1 RES     
     284 O           27.9106    30.6982    38.9917 O             1 RES     
     285 C           28.2234    29.7144    43.9982 C             1 RES     
     286 O           27.8740    29.4755    45.1541 O             1 RES     
     287 C           23.3426    29.7273    42.9242 C             1 RES     
     288 O           23.1727    29.4357    44.1082 O             1 RES     
     289 H           24.2375    30.4577    40.4389 H             1 RES     
     290 H           25.5640    29.7755    44.4769 H             1 RES     
     291 H           28.4449    30.3296    41.3060 H             1 RES     
     292 H           21.4141    20.4008    39.1538 H             1 RES     
     293 C           18.5283    33.1252    32.2985 C             1 RES     
     294 C           19.6546    33.0675    33.3414 C             1 RES     
     295 N           19.2389    32.2791    34.5043 N             1 RES     
     296 C           20.3244    32.2287    35.4885 C             1 RES     
     297 C           19.8981    31.3995    36.7082 C             1 RES     
     298 N           20.9800    31.3554    37.6956 N             1 RES     
     299 C           20.5727    30.5521    38.8510 C             1 RES     
     300 C           21.6988    30.4916    39.8941 C             1 RES     
     301 N           21.2959    29.7005    41.0555 N             1 RES     
     302 N           18.9340    33.9097    31.1334 N             1 RES     
     303 H           17.6296    33.5715    32.7402 H             1 RES     
     304 H           18.2690    32.1119    31.9718 H             1 RES     
     305 H           19.9040    34.0874    33.6591 H             1 RES     
     306 H           20.5502    32.6251    32.8878 H             1 RES     
     307 H           19.0239    31.3283    34.2016 H             1 RES     
     308 H           20.5768    33.2456    35.8138 H             1 RES     
     309 H           21.2215    31.7832    35.0402 H             1 RES     
     310 H           19.6496    30.3816    36.3830 H             1 RES     
     311 H           18.9985    31.8421    37.1543 H             1 RES     
     312 H           21.1973    32.3045    37.9981 H             1 RES     
     313 H           20.3266    29.5334    38.5274 H             1 RES     
     314 H           19.6756    30.9882    39.3082 H             1 RES     
     315 H           21.9600    31.5041    40.2237 H             1 RES     
     316 H           22.5957    30.0462    39.4497 H             1 RES     
     317 H           18.1506    33.9674    30.4837 H             1 RES     
     318 C           17.4165    36.5588    33.4135 C             1 RES     
     319 C           16.6132    37.1931    34.3703 C             1 RES     
     320 C           16.8957    38.5201    34.7329 C             1 RES     
     321 C           18.0405    39.1706    34.2422 C             1 RES     
     322 C           18.8525    38.5094    33.3104 C             1 RES     
     323 C           18.5428    37.2050    32.8871 C             1 RES     
     324 C           19.4671    36.5068    31.9310 C             1 RES     
     325 O           20.4533    37.1390    31.5520 O             1 RES     
     326 C           18.4102    40.5172    34.7993 C             1 RES     
     327 O           17.6453    41.0053    35.6309 O             1 RES     
     328 C           15.5289    36.4444    35.0936 C             1 RES     
     329 O           14.8998    37.0612    35.9535 O             1 RES     
     330 H           17.1773    35.5487    33.0956 H             1 RES     
     331 H           16.2399    39.0376    35.4363 H             1 RES     
     332 H           19.7459    38.9896    32.9129 H             1 RES     
     333 H           20.4300    30.1667    41.5348 H             1 RES     
     334 C           16.3320    26.7664    27.7915 C             1 RES     
     335 C           16.5912    28.2346    28.1610 C             1 RES     
     336 N           16.0245    28.5417    29.4768 N             1 RES     
     337 C           16.2833    29.9438    29.8182 C             1 RES     
     338 C           15.6968    30.2719    31.1985 C             1 RES     
     339 N           15.9485    31.6754    31.5368 N             1 RES     
     340 C           15.3985    31.9791    32.8602 C             1 RES     
     341 C           15.6588    33.4466    33.2322 C             1 RES     
     342 N           15.1031    33.7607    34.5475 N             1 RES     
     343 N           16.8946    26.4501    26.4796 N             1 RES     
     344 H           15.2542    26.5663    27.7807 H             1 RES     
     345 H           16.7843    26.1068    28.5405 H             1 RES     
     346 H           16.1337    28.8830    27.4036 H             1 RES     
     347 H           17.6716    28.4256    28.1630 H             1 RES     
     348 H           16.4669    27.9448    30.1768 H             1 RES     
     349 H           15.8253    30.5986    29.0666 H             1 RES     
     350 H           17.3632    30.1386    29.8252 H             1 RES     
     351 H           16.1581    29.6195    31.9504 H             1 RES     
     352 H           14.6176    30.0731    31.1934 H             1 RES     
     353 H           15.5086    32.2731    30.8378 H             1 RES     
     354 H           15.8610    31.3294    33.6131 H             1 RES     
     355 H           14.3180    31.7880    32.8656 H             1 RES     
     356 H           15.2066    34.1093    32.4850 H             1 RES     
     357 H           16.7365    33.6440    33.2411 H             1 RES     
     358 H           16.6653    25.4849    26.2448 H             1 RES     
     359 C           13.3852    27.6433    25.5968 C             1 RES     
     360 C           12.0109    27.9080    25.6624 C             1 RES     
     361 C           11.4134    28.6881    24.6592 C             1 RES     
     362 C           12.1951    29.3039    23.6671 C             1 RES     
     363 C           13.5742    29.0554    23.6352 C             1 RES     
     364 C           14.1751    28.2210    24.5940 C             1 RES     
     365 C           15.6637    28.0233    24.5627 C             1 RES     
     366 O           16.2809    28.6020    23.6681 O             1 RES     
     367 C           11.5453    30.2815    22.7278 C             1 RES     
     368 O           10.3321    30.4497    22.8502 O             1 RES     
     369 C           11.1906    27.4673    26.8424 C             1 RES     
     370 O           10.0000    27.7806    26.8457 O             1 RES     
     371 H           13.8456    27.0044    26.3441 H             1 RES     
     372 H           10.3336    28.8511    24.6748 H             1 RES     
     373 H           14.2046    29.5190    22.8773 H             1 RES     
     374 H           14.0192    33.6137    34.5326 H             1 RES     
     375 C           20.0975    20.5615    31.3818 C             1 RES     
     376 C           19.4159    21.3665    30.2653 C             1 RES     
     377 N           18.1630    21.9545    30.7464 N             1 RES     
     378 C           17.5262    22.7232    29.6727 C             1 RES     
     379 C           16.2149    23.3469    30.1710 C             1 RES     
     380 N           15.5741    24.1089    29.0956 N             1 RES     
     381 C           14.3305    24.7127    29.5805 C             1 RES     
     382 C           13.6485    25.5200    28.4656 C             1 RES     
     383 N           12.4006    26.1169    28.9386 N             1 RES     
     384 N           21.3495    19.9711    30.9112 N             1 RES     
     385 H           19.4306    19.7647    31.7315 H             1 RES     
     386 H           20.3112    21.2137    32.2360 H             1 RES     
     387 H           19.2081    20.7022    29.4174 H             1 RES     
     388 H           20.0934    22.1568    29.9188 H             1 RES     
     389 H           18.3678    22.5824    31.5247 H             1 RES     
     390 H           17.3120    22.0641    28.8222 H             1 RES     
     391 H           18.1990    23.5175    29.3254 H             1 RES     
     392 H           16.4301    24.0090    31.0189 H             1 RES     
     393 H           15.5434    22.5533    30.5224 H             1 RES     
     394 H           15.3701    23.4836    28.3167 H             1 RES     
     395 H           14.5448    25.3770    30.4265 H             1 RES     
     396 H           13.6489    23.9274    29.9308 H             1 RES     
     397 H           13.4326    24.8699    27.6097 H             1 RES     
     398 H           14.3176    26.3147    28.1175 H             1 RES     
     399 H           21.7515    19.4071    31.6592 H             1 RES     
     400 C           18.8012    17.2699    30.0574 C             1 RES     
     401 C           17.6724    16.4409    30.0982 C             1 RES     
     402 C           17.4389    15.5467    29.0409 C             1 RES     
     403 C           18.2506    15.5628    27.8939 C             1 RES     
     404 C           19.3572    16.4222    27.8552 C             1 RES     
     405 C           19.6418    17.2746    28.9364 C             1 RES     
     406 C           20.8026    18.2224    28.8357 C             1 RES     
     407 O           21.4618    18.1828    27.7965 O             1 RES     
     408 C           17.8559    14.7268    26.7084 C             1 RES     
     409 O           16.8542    14.0223    26.8320 O             1 RES     
     410 C           16.6523    16.5714    31.1945 C             1 RES     
     411 O           15.6653    15.8381    31.1317 O             1 RES     
     412 H           19.0122    17.9318    30.8917 H             1 RES     
     413 H           16.5918    14.8594    29.0937 H             1 RES     
     414 H           20.0039    16.4555    26.9792 H             1 RES     
     415 H           11.7076    25.3267    29.2419 H             1 RES     
     416 H           18.4317    14.7857    25.7801 H             1 RES     
     417 H           15.8507    19.7664    29.0567 H             1 RES     
     418 H           16.7842    17.3267    31.9748 H             1 RES     
     419 C           24.1919    22.1731    47.3192 C             1 RES     
     420 C           23.6564    21.6649    45.9723 C             1 RES     
     421 N           22.1912    21.6547    45.9720 N             1 RES     
     422 C           21.6944    21.1723    44.6798 C             1 RES     
     423 C           20.1593    21.1638    44.6700 C             1 RES     
     424 N           19.6623    20.6743    43.3811 N             1 RES     
     425 C           18.1974    20.6809    43.3728 C             1 RES     
     426 C           17.6602    20.1749    42.0255 C             1 RES     
     427 N           16.1983    20.1681    42.0130 N             1 RES     
     428 N           25.6539    22.1875    47.3290 N             1 RES     
     429 H           23.8309    21.5331    48.1328 H             1 RES     
     430 H           23.8253    23.1883    47.5084 H             1 RES     
     431 H           24.0309    20.6490    45.7958 H             1 RES     
     432 H           24.0281    22.3083    45.1651 H             1 RES     
     433 H           21.8522    22.6059    46.1214 H             1 RES     
     434 H           22.0622    20.1548    44.4981 H             1 RES     
     435 H           22.0607    21.8153    43.8695 H             1 RES     
     436 H           19.7921    22.1822    44.8477 H             1 RES     
     437 H           19.7925    20.5244    45.4828 H             1 RES     
     438 H           20.0012    19.7248    43.2295 H             1 RES     
     439 H           17.8292    21.6991    43.5476 H             1 RES     
     440 H           17.8190    20.0407    44.1796 H             1 RES     
     441 H           18.0246    19.1588    41.8338 H             1 RES     
     442 H           18.0233    20.8157    41.2144 H             1 RES     
     443 H           25.9761    22.4840    48.2496 H             1 RES     
     444 C           24.8633    18.6778    48.5845 C             1 RES     
     445 C           24.2248    17.5958    49.2046 C             1 RES     
     446 C           24.7402    16.3015    49.0279 C             1 RES     
     447 C           25.8062    16.0675    48.1429 C             1 RES     
     448 C           26.4129    17.1580    47.5045 C             1 RES     
     449 C           25.9500    18.4669    47.7255 C             1 RES     
     450 C           26.5876    19.6046    46.9803 C             1 RES     
     451 O           27.5105    19.3190    46.2169 O             1 RES     
     452 C           26.2035    14.6502    47.8369 C             1 RES     
     453 O           25.5951    13.7603    48.4311 O             1 RES     
     454 C           22.9388    17.7821    49.9601 C             1 RES     
     455 O           22.4166    16.7734    50.4351 O             1 RES     
     456 H           24.4972    19.6859    48.7525 H             1 RES     
     457 H           24.2801    15.4619    49.5535 H             1 RES     
     458 H           27.2414    17.0063    46.8136 H             1 RES     
     459 H           15.8277    19.4914    42.7887 H             1 RES     
     460 C           23.6703    29.9067    49.6625 C             1 RES     
     461 C           24.2505    28.4910    49.5259 C             1 RES     
     462 N           23.2175    27.4846    49.7846 N             1 RES     
     463 C           23.7838    26.1394    49.6463 C             1 RES     
     464 C           22.7057    25.0789    49.9108 C             1 RES     
     465 N           23.2732    23.7341    49.7803 N             1 RES     
     466 C           22.2372    22.7266    50.0206 C             1 RES     
     467 C           22.8153    21.3101    49.8823 C             1 RES     
     468 N           21.7898    20.2985    50.1315 N             1 RES     
     469 N           24.6939    30.9185    49.4054 N             1 RES     
     470 H           23.2642    30.0508    50.6705 H             1 RES     
     471 H           22.8483    30.0442    48.9511 H             1 RES     
     472 H           25.0715    28.3674    50.2428 H             1 RES     
     473 H           24.6592    28.3595    48.5163 H             1 RES     
     474 H           22.4655    27.5974    49.1036 H             1 RES     
     475 H           24.6036    26.0072    50.3632 H             1 RES     
     476 H           24.1905    26.0019    48.6364 H             1 RES     
     477 H           21.8879    25.2090    49.1911 H             1 RES     
     478 H           22.2955    25.2187    50.9190 H             1 RES     
     479 H           24.0256    23.6200    50.4588 H             1 RES     
     480 H           21.4204    22.8540    49.2998 H             1 RES     
     481 H           21.8225    22.8541    51.0284 H             1 RES     
     482 H           23.6376    21.1692    50.5936 H             1 RES     
     483 H           23.2213    21.1694    48.8744 H             1 RES     
     484 H           24.2894    31.8430    49.5496 H             1 RES     
     485 C           25.0446    30.3361    53.1547 C             1 RES     
     486 C           24.7469    30.0451    54.4926 C             1 RES     
     487 C           25.7940    29.9468    55.4231 C             1 RES     
     488 C           27.1342    30.0134    55.0060 C             1 RES     
     489 C           27.4154    30.2722    53.6574 C             1 RES     
     490 C           26.3748    30.4406    52.7272 C             1 RES     
     491 C           26.7144    30.6598    51.2805 C             1 RES     
     492 O           27.9106    30.6982    50.9917 O             1 RES     
     493 C           28.2234    29.7144    55.9982 C             1 RES     
     494 O           27.8740    29.4755    57.1541 O             1 RES     
     495 C           23.3426    29.7273    54.9242 C             1 RES     
     496 O           23.1727    29.4357    56.1082 O             1 RES     
     497 H           24.2375    30.4577    52.4389 H             1 RES     
     498 H           25.5640    29.7755    56.4769 H             1 RES     
     499 H           28.4449    30.3296    53.3060 H             1 RES     
     500 H           21.4141    20.4008    51.1538 H             1 RES     
     501 H           29.2677    29.6853    55.6736 H             1 RES     
     502 C           18.5283    33.1252    44.2985 C             1 RES     
     503 C           19.6546    33.0675    45.3414 C             1 RES     
     504 N           19.2389    32.2791    46.5043 N             1 RES     
     505 C           20.3244    32.2287    47.4885 C             1 RES     
     506 C           19.8981    31.3995    48.7082 C             1 RES     
     507 N           20.9800    31.3554    49.6956 N             1 RES     
     508 C           20.5727    30.5521    50.8510 C             1 RES     
     509 C           21.6988    30.4916    51.8941 C             1 RES     
     510 N           21.2959    29.7005    53.0555 N             1 RES     
     511 N           18.9340    33.9097    43.1334 N             1 RES     
     512 H           17.6296    33.5715    44.7402 H             1 RES     
     513 H           18.2690    32.1119    43.9718 H             1 RES     
     514 H           19.9040    34.0874    45.6591 H             1 RES     
     515 H           20.5502    32.6251    44.8878 H             1 RES     
     516 H           19.0239    31.3283    46.2016 H             1 RES     
     517 H           20.5768    33.2456    47.8138 H             1 RES     
     518 H           21.2215    31.7832    47.0402 H             1 RES     
     519 H           19.6496    30.3816    48.3830 H             1 RES     
     520 H           18.9985    31.8421    49.1543 H             1 RES     
     521 H           21.1973    32.3045    49.9981 H             1 RES     
     522 H           20.3266    29.5334    50.5274 H             1 RES     
     523 H           19.6756    30.9882    51.3082 H             1 RES     
     524 H           21.9600    31.5041    52.2237 H             1 RES     
     525 H           22.5957    30.0462    51.4497 H             1 RES     
     526 H           18.1506    33.9674    42.4837 H             1 RES     
     527 C           17.4165    36.5588    45.4135 C             1 RES     
     528 C           16.6132    37.1931    46.3703 C             1 RES     
     529 C           16.8957    38.5201    46.7329 C             1 RES     
     530 C           18.0405    39.1706    46.2422 C             1 RES     
     531 C           18.8525    38.5094    45.3104 C             1 RES     
     532 C           18.5428    37.2050    44.8871 C             1 RES     
     533 C           19.4671    36.5068    43.9310 C             1 RES     
     534 O           20.4533    37.1390    43.5520 O             1 RES     
     535 C           18.4102    40.5172    46.7993 C             1 RES     
     536 O           17.6453    41.0053    47.6309 O             1 RES     
     537 C           15.5289    36.4444    47.0936 C             1 RES     
     538 O           14.8998    37.0612    47.9535 O             1 RES     
     539 H           17.1773    35.5487    45.0956 H             1 RES     
     540 H           16.2399    39.0376    47.4363 H             1 RES     
     541 H           19.7459    38.9896    44.9129 H             1 RES     
     542 H           20.4300    30.1667    53.5348 H             1 RES     
     543 H           19.3388    41.0037    46.4863 H             1 RES     
     544 C           16.3320    26.7664    39.7915 C             1 RES     
     545 C           16.5912    28.2346    40.1610 C             1 RES     
     546 N           16.0245    28.5417    41.4768 N             1 RES     
     547 C           16.2833    29.9438    41.8182 C             1 RES     
     548 C           15.6968    30.2719    43.1985 C             1 RES     
     549 N           15.9485    31.6754    43.5368 N             1 RES     
     550 C           15.3985    31.9791    44.8602 C             1 RES     
     551 C           15.6588    33.4466    45.2322 C             1 RES     
     552 N           15.1031    33.7607    46.5475 N             1 RES     
     553 N           16.8946    26.4501    38.4796 N             1 RES     
     554 H           15.2542    26.5663    39.7807 H             1 RES     
     555 H           16.7843    26.1068    40.5405 H             1 RES     
     556 H           16.1337    28.8830    39.4036 H             1 RES     
     557 H           17.6716    28.4256    40.1630 H             1 RES     
     558 H           16.4669    27.9448    42.1768 H             1 RES     
     559 H           15.8253    30.5986    41.0666 H             1 RES     
     560 H           17.3632    30.1386    41.8252 H             1 RES     
     561 H           16.1581    29.6195    43.9504 H             1 RES     
     562 H           14.6176    30.0731    43.1934 H             1 RES     
     563 H           15.5086    32.2731    42.8378 H             1 RES     
     564 H           15.8610    31.3294    45.6131 H             1 RES     
     565 H           14.3180    31.7880    44.8656 H             1 RES     
     566 H           15.2066    34.1093    44.4850 H             1 RES     
     567 H           16.7365    33.6440    45.2411 H             1 RES     
     568 H           16.6653    25.4849    38.2448 H             1 RES     
     569 C           13.3852    27.6433    37.5968 C             1 RES     
     570 C           12.0109    27.9080    37.6624 C             1 RES     
     571 C           11.4134    28.6881    36.6592 C             1 RES     
     572 C           12.1951    29.3039    35.6671 C             1 RES     
     573 C           13.5742    29.0554    35.6352 C             1 RES     
     574 C           14.1751    28.2210    36.5940 C             1 RES     
     575 C           15.6637    28.0233    36.5627 C             1 RES     
     576 O           16.2809    28.6020    35.6681 O             1 RES     
     577 C           11.5453    30.2815    34.7278 C             1 RES     
     578 O           10.3321    30.4497    34.8502 O             1 RES     
     579 C           11.1906    27.4673    38.8424 C             1 RES     
     580 O           10.0000    27.7806    38.8457 O             1 RES     
     581 H           13.8456    27.0044    38.3441 H             1 RES     
     582 H           10.3336    28.8511    36.6748 H             1 RES     
     583 H           14.2046    29.5190    34.8773 H             1 RES     
     584 H           14.0192    33.6137    46.5326 H             1 RES     
     585 C           20.0975    20.5615    43.3818 C             1 RES     
     586 C           19.4159    21.3665    42.2653 C             1 RES     
     587 N           18.1630    21.9545    42.7464 N             1 RES     
     588 C           17.5262    22.7232    41.6727 C             1 RES     
     589 C           16.2149    23.3469    42.1710 C             1 RES     
     590 N           15.5741    24.1089    41.0956 N             1 RES     
     591 C           14.3305    24.7127    41.5805 C             1 RES     
     592 C           13.6485    25.5200    40.4656 C             1 RES     
     593 N           12.4006    26.1169    40.9386 N             1 RES     
     594 N           21.3495    19.9711    42.9112 N             1 RES     
     595 H           19.4306    19.7647    43.7315 H             1 RES     
     596 H           20.3112    21.2137    44.2360 H             1 RES     
     597 H           19.2081    20.7022    41.4174 H             1 RES     
     598 H           20.0934    22.1568    41.9188 H             1 RES     
     599 H           18.3678    22.5824    43.5247 H             1 RES     
     600 H           17.3120    22.0641    40.8222 H             1 RES     
     601 H           18.1990    23.5175    41.3254 H             1 RES     
     602 H           16.4301    24.0090    43.0189 H             1 RES     
     603 H           15.5434    22.5533    42.5224 H             1 RES     
     604 H           15.3701    23.4836    40.3167 H             1 RES     
     605 H           14.5448    25.3770    42.4265 H             1 RES     
     606 H           13.6489    23.9274    41.9308 H             1 RES     
     607 H           13.4326    24.8699    39.6097 H             1 RES     
     608 H           14.3176    26.3147    40.1175 H             1 RES     
     609 H           21.7515    19.4071    43.6592 H             1 RES     
     610 C           18.8012    17.2699    42.0574 C             1 RES     
     611 C           17.6724    16.4409    42.0982 C             1 RES     
     612 C           17.4389    15.5467    41.0409 C             1 RES     
     613 C           18.2506    15.5628    39.8939 C             1 RES     
     614 C           19.3572    16.4222    39.8552 C             1 RES     
     615 C           19.6418    17.2746    40.9364 C             1 RES     
     616 C           20.8026    18.2224    40.8357 C             1 RES     
     617 O           21.4618    18.1828    39.7965 O             1 RES     
     618 C           17.8559    14.7268    38.7084 C             1 RES     
     619 O           16.8542    14.0223    38.8320 O             1 RES     
     620 C           16.6523    16.5714    43.1945 C             1 RES     
     621 O           15.6653    15.8381    43.1317 O             1 RES     
     622 H           19.0122    17.9318    42.8917 H             1 RES     
     623 H           16.5918    14.8594    41.0937 H             1 RES     
     624 H           20.0039    16.4555    38.9792 H             1 RES     
     625 H           11.7076    25.3267    41.2419 H             1 RES     
     626 H           18.4317    14.7857    37.7801 H             1 RES     
     627 H           15.8507    19.7664    41.0567 H             1 RES     
     628 H           16.7842    17.3267    43.9748 H             1 RES     
     629 C           31.0372    31.4046    37.1888 C             1 RES     
     630 C           30.6422    30.3441    38.2274 C             1 RES     
     631 N           29.2956    30.6049    38.7425 N             1 RES     
     632 C           28.9303    29.5832    39.7284 C             1 RES     
     633 C           27.5179    29.8469    40.2690 C             1 RES     
     634 N           27.1555    28.8302    41.2603 N             1 RES     
     635 C           25.8021    29.0791    41.7628 C             1 RES     
     636 C           25.4047    28.0180    42.8001 C             1 RES     
     637 N           24.0589    28.2658    43.3146 N             1 RES     
     638 N           32.3799    31.1524    36.6683 N             1 RES     
     639 H           31.0059    32.4030    37.6406 H             1 RES     
     640 H           30.3256    31.3952    36.3556 H             1 RES     
     641 H           31.3623    30.3644    39.0548 H             1 RES     
     642 H           30.6826    29.3491    37.7671 H             1 RES     
     643 H           28.6309    30.5689    37.9686 H             1 RES     
     644 H           29.6444    29.6001    40.5611 H             1 RES     
     645 H           28.9656    28.5863    39.2713 H             1 RES     
     646 H           26.8036    29.8259    39.4365 H             1 RES     
     647 H           27.4809    30.8455    40.7224 H             1 RES     
     648 H           27.8192    28.8637    42.0335 H             1 RES     
     649 H           25.0868    29.0556    40.9317 H             1 RES     
     650 H           25.7543    30.0742    42.2227 H             1 RES     
     651 H           26.1145    28.0256    43.6356 H             1 RES     
     652 H           25.4379    27.0214    42.3462 H             1 RES     
     653 H           23.8401    27.5683    44.0252 H             1 RES     
     654 H           32.6289    31.8976    36.0188 H             1 RES     
     655 C           16.2783    38.9643    30.2214 C             1 RES     
     656 C           16.8435    38.8086    28.8017 C             1 RES     
     657 N           17.5156    40.0396    28.3776 N             1 RES     
     658 C           18.0538    39.8750    27.0239 C             1 RES     
     659 C           18.7644    41.1595    26.5745 C             1 RES     
     660 N           19.2957    40.9981    25.2183 N             1 RES     
     661 C           19.9840    42.2218    24.7999 C             1 RES     
     662 C           20.5519    42.0669    23.3810 C             1 RES     
     663 N           21.2311    43.2882    22.9518 N             1 RES     
     664 N           15.6059    37.7402    30.6538 N             1 RES     
     665 H           15.5674    39.7983    30.2535 H             1 RES     
     666 H           17.0882    39.1918    30.9234 H             1 RES     
     667 H           16.0230    38.5811    28.1101 H             1 RES     
     668 H           17.5486    37.9683    28.7793 H             1 RES     
     669 H           18.2866    40.2347    29.0175 H             1 RES     
     670 H           17.2378    39.6508    26.3257 H             1 RES     
     671 H           18.7627    39.0378    26.9975 H             1 RES     
     672 H           19.5828    41.3811    27.2707 H             1 RES     
     673 H           18.0571    41.9979    26.6048 H             1 RES     
     674 H           18.5272    40.8017    24.5779 H             1 RES     
     675 H           20.8043    42.4427    25.4938 H             1 RES     
     676 H           19.2846    43.0669    24.8223 H             1 RES     
     677 H           19.7436    41.8401    22.6759 H             1 RES     
     678 H           21.2610    41.2323    23.3517 H             1 RES     
     679 H           21.5634    43.1664    21.9957 H             1 RES     
     680 H           15.2030    37.8923    31.5778 H             1 RES     
     681 C           25.0807    12.7264    40.1348 C             1 RES     
     682 C           26.0914    12.9999    41.2586 C             1 RES     
     683 N           25.5251    13.9219    42.2466 N             1 RES     
     684 C           26.4980    14.1700    43.3149 C             1 RES     
     685 C           25.9096    15.1315    44.3571 C             1 RES     
     686 N           26.8848    15.3858    45.4211 N             1 RES     
     687 C           26.3133    16.2931    46.4193 C             1 RES     
     688 C           27.3221    16.5660    47.5452 C             1 RES     
     689 N           26.7630    17.4796    48.5402 N             1 RES     
     690 N           25.6368    11.8064    39.1438 N             1 RES     
     691 H           24.8039    13.6655    39.6415 H             1 RES     
     692 H           24.1668    12.2891    40.5521 H             1 RES     
     693 H           27.0005    13.4368    40.8273 H             1 RES     
     694 H           26.3660    12.0537    41.7413 H             1 RES     
     695 H           24.6890    13.5006    42.6534 H             1 RES     
     696 H           27.4090    14.6106    42.8911 H             1 RES     
     697 H           26.7728    13.2265    43.8033 H             1 RES     
     698 H           25.0009    14.6886    44.7835 H             1 RES     
     699 H           25.6306    16.0735    43.8684 H             1 RES     
     700 H           27.7213    15.8053    45.0164 H             1 RES     
     701 H           25.4062    15.8501    46.8482 H             1 RES     
     702 H           26.0343    17.2411    45.9423 H             1 RES     
     703 H           28.2375    17.0045    47.1308 H             1 RES     
     704 H           27.5976    15.6258    48.0356 H             1 RES     
     705 H           27.4678    17.6688    49.2521 H             1 RES     
     706 H           24.9612    11.6831    38.3904 H             1 RES     
     707 C           13.2325    29.8504    30.6818 C             1 RES     
     708 C           12.8179    29.2669    29.3228 C             1 RES     
     709 N           12.2346    30.3077    28.4724 N             1 RES     
     710 C           11.8482    29.7380    27.1780 C             1 RES     
     711 C           11.2408    30.8242    26.2790 C             1 RES     
     712 N           10.8473    30.2534    24.9879 N             1 RES     
     713 C           10.2808    31.2968    24.1297 C             1 RES     
     714 C            9.8676    30.7153    22.7692 C             1 RES     
     715 N            9.2910    31.7485    21.9105 N             1 RES     
     716 N           13.8165    28.8189    31.5377 N             1 RES     
     717 H           12.3618    30.2874    31.1846 H             1 RES     
     718 H           13.9676    30.6499    30.5369 H             1 RES     
     719 H           12.0828    28.4684    29.4826 H             1 RES     
     720 H           13.6947    28.8272    28.8312 H             1 RES     
     721 H           12.9304    31.0382    28.3166 H             1 RES     
     722 H           11.1100    28.9408    27.3298 H             1 RES     
     723 H           12.7230    29.3003    26.6807 H             1 RES     
     724 H           11.9808    31.6193    26.1243 H             1 RES     
     725 H           10.3685    31.2653    26.7778 H             1 RES     
     726 H           10.1534    29.5225    25.1416 H             1 RES     
     727 H           11.0207    32.0909    23.9720 H             1 RES     
     728 H            9.4043    31.7425    24.6168 H             1 RES     
     729 H            9.1312    29.9155    22.9109 H             1 RES     
     730 H           10.7393    30.2784    22.2697 H             1 RES     
     731 H            8.9943    31.3245    21.0322 H             1 RES     
     732 H           14.0369    29.2273    32.4454 H             1 RES     
@<TRIPOS>BOND
       1        1        2 1
       2        1       10 1
       3        1       11 1
       4        1       12 1
       5        2        3 1
       6        2       13 1
       7        2       14 1
       8        3        4 1
       9        3       15 1
      10        4        5 1
      11        4       16 1
      12        4       17 1
      13        5        6 1
      14        5       18 1
      15        5       19 1
      16        6        7 1
      17        6       20 1
      18        7        8 1
      19        7       21 1
      20        7       22 1
      21        8        9 1
      22        8       23 1
      23        8       24 1
      24        9       41 1
      25        9      209 1
      26       10       25 1
      27       10       32 1
      28       26       27 1
      29       26       31 1
      30       26       38 1
      31       27       28 1
      32       27       36 1
      33       28       29 1
      34       28       39 1
      35       29       30 1
      36       29       34 1
      37       30       31 1
      38       30       40 1
      39       31       32 1
      40       32       33 1
      41       34       35 1
      42       34       42 1
      43       36       37 1
      44       36       51 1
      45       43       44 1
      46       43       52 1
      47       43       53 1
      48       43       54 1
      49       44       45 1
      50       44       55 1
      51       44       56 1
      52       45       46 1
      53       45       57 1
      54       46       47 1
      55       46       58 1
      56       46       59 1
      57       47       48 1
      58       47       60 1
      59       47       61 1
      60       48       49 1
      61       48       62 1
      62       49       50 1
      63       49       63 1
      64       49       64 1
      65       50       51 1
      66       50       65 1
      67       50       66 1
      68       51       83 1
      69       52       67 1
      70       52       74 1
      71       68       69 1
      72       68       73 1
      73       68       80 1
      74       69       70 1
      75       69       78 1
      76       70       71 1
      77       70       81 1
      78       71       72 1
      79       71       76 1
      80       72       73 1
      81       72       82 1
      82       73       74 1
      83       74       75 1
      84       76       77 1
      85       76      637 1
      86       78       79 1
      87       78       92 1
      88       84       85 1
      89       84       93 1
      90       84       94 1
      91       84       95 1
      92       85       86 1
      93       85       96 1
      94       85       97 1
      95       86       87 1
      96       86       98 1
      97       87       88 1
      98       87       99 1
      99       87      100 1
     100       88       89 1
     101       88      101 1
     102       88      102 1
     103       89       90 1
     104       89      103 1
     105       90       91 1
     106       90      104 1
     107       90      105 1
     108       91       92 1
     109       91      106 1
     110       91      107 1
     111       92      124 1
     112       93      108 1
     113       93      115 1
     114      109      110 1
     115      109      114 1
     116      109      121 1
     117      110      111 1
     118      110      119 1
     119      111      112 1
     120      111      122 1
     121      112      113 1
     122      112      117 1
     123      113      114 1
     124      113      123 1
     125      114      115 1
     126      115      116 1
     127      117      118 1
     128      117      663 1
     129      119      120 1
     130      119      133 1
     131      125      126 1
     132      125      134 1
     133      125      135 1
     134      125      136 1
     135      126      127 1
     136      126      137 1
     137      126      138 1
     138      127      128 1
     139      127      139 1
     140      128      129 1
     141      128      140 1
     142      128      141 1
     143      129      130 1
     144      129      142 1
     145      129      143 1
     146      130      131 1
     147      130      144 1
     148      131      132 1
     149      131      145 1
     150      131      146 1
     151      132      133 1
     152      132      147 1
     153      132      148 1
     154      133      165 1
     155      134      149 1
     156      134      156 1
     157      150      151 1
     158      150      155 1
     159      150      162 1
     160      151      152 1
     161      151      160 1
     162      152      153 1
     163      152      163 1
     164      153      154 1
     165      153      158 1
     166      154      155 1
     167      154      164 1
     168      155      156 1
     169      156      157 1
     170      158      159 1
     171      158      166 1
     172      160      161 1
     173      160      175 1
     174      167      168 1
     175      167      176 1
     176      167      177 1
     177      167      178 1
     178      168      169 1
     179      168      179 1
     180      168      180 1
     181      169      170 1
     182      169      181 1
     183      170      171 1
     184      170      182 1
     185      170      183 1
     186      171      172 1
     187      171      184 1
     188      171      185 1
     189      172      173 1
     190      172      186 1
     191      173      174 1
     192      173      187 1
     193      173      188 1
     194      174      175 1
     195      174      189 1
     196      174      190 1
     197      175      207 1
     198      176      191 1
     199      176      198 1
     200      192      193 1
     201      192      197 1
     202      192      204 1
     203      193      194 1
     204      193      202 1
     205      194      195 1
     206      194      205 1
     207      195      196 1
     208      195      200 1
     209      196      197 1
     210      196      206 1
     211      197      198 1
     212      198      199 1
     213      200      201 1
     214      200      208 1
     215      202      203 1
     216      202      210 1
     217      211      212 1
     218      211      220 1
     219      211      221 1
     220      211      222 1
     221      212      213 1
     222      212      223 1
     223      212      224 1
     224      213      214 1
     225      213      225 1
     226      214      215 1
     227      214      226 1
     228      214      227 1
     229      215      216 1
     230      215      228 1
     231      215      229 1
     232      216      217 1
     233      216      230 1
     234      217      218 1
     235      217      231 1
     236      217      232 1
     237      218      219 1
     238      218      233 1
     239      218      234 1
     240      219      251 1
     241      219      417 1
     242      220      235 1
     243      220      242 1
     244      236      237 1
     245      236      241 1
     246      236      248 1
     247      237      238 1
     248      237      246 1
     249      238      239 1
     250      238      249 1
     251      239      240 1
     252      239      244 1
     253      240      241 1
     254      240      250 1
     255      241      242 1
     256      242      243 1
     257      244      245 1
     258      244      689 1
     259      246      247 1
     260      246      260 1
     261      252      253 1
     262      252      261 1
     263      252      262 1
     264      252      263 1
     265      253      254 1
     266      253      264 1
     267      253      265 1
     268      254      255 1
     269      254      266 1
     270      255      256 1
     271      255      267 1
     272      255      268 1
     273      256      257 1
     274      256      269 1
     275      256      270 1
     276      257      258 1
     277      257      271 1
     278      258      259 1
     279      258      272 1
     280      258      273 1
     281      259      260 1
     282      259      274 1
     283      259      275 1
     284      260      292 1
     285      261      276 1
     286      261      283 1
     287      277      278 1
     288      277      282 1
     289      277      289 1
     290      278      279 1
     291      278      287 1
     292      279      280 1
     293      279      290 1
     294      280      281 1
     295      280      285 1
     296      281      282 1
     297      281      291 1
     298      282      283 1
     299      283      284 1
     300      285      286 1
     301      285      638 1
     302      287      288 1
     303      287      301 1
     304      293      294 1
     305      293      302 1
     306      293      303 1
     307      293      304 1
     308      294      295 1
     309      294      305 1
     310      294      306 1
     311      295      296 1
     312      295      307 1
     313      296      297 1
     314      296      308 1
     315      296      309 1
     316      297      298 1
     317      297      310 1
     318      297      311 1
     319      298      299 1
     320      298      312 1
     321      299      300 1
     322      299      313 1
     323      299      314 1
     324      300      301 1
     325      300      315 1
     326      300      316 1
     327      301      333 1
     328      302      317 1
     329      302      324 1
     330      318      319 1
     331      318      323 1
     332      318      330 1
     333      319      320 1
     334      319      328 1
     335      320      321 1
     336      320      331 1
     337      321      322 1
     338      321      326 1
     339      322      323 1
     340      322      332 1
     341      323      324 1
     342      324      325 1
     343      326      327 1
     344      326      664 1
     345      328      329 1
     346      328      342 1
     347      334      335 1
     348      334      343 1
     349      334      344 1
     350      334      345 1
     351      335      336 1
     352      335      346 1
     353      335      347 1
     354      336      337 1
     355      336      348 1
     356      337      338 1
     357      337      349 1
     358      337      350 1
     359      338      339 1
     360      338      351 1
     361      338      352 1
     362      339      340 1
     363      339      353 1
     364      340      341 1
     365      340      354 1
     366      340      355 1
     367      341      342 1
     368      341      356 1
     369      341      357 1
     370      342      374 1
     371      343      358 1
     372      343      365 1
     373      359      360 1
     374      359      364 1
     375      359      371 1
     376      360      361 1
     377      360      369 1
     378      361      362 1
     379      361      372 1
     380      362      363 1
     381      362      367 1
     382      363      364 1
     383      363      373 1
     384      364      365 1
     385      365      366 1
     386      367      368 1
     387      367      715 1
     388      369      370 1
     389      369      383 1
     390      375      376 1
     391      375      384 1
     392      375      385 1
     393      375      386 1
     394      376      377 1
     395      376      387 1
     396      376      388 1
     397      377      378 1
     398      377      389 1
     399      378      379 1
     400      378      390 1
     401      378      391 1
     402      379      380 1
     403      379      392 1
     404      379      393 1
     405      380      381 1
     406      380      394 1
     407      381      382 1
     408      381      395 1
     409      381      396 1
     410      382      383 1
     411      382      397 1
     412      382      398 1
     413      383      415 1
     414      384      399 1
     415      384      406 1
     416      400      401 1
     417      400      405 1
     418      400      412 1
     419      401      402 1
     420      401      410 1
     421      402      403 1
     422      402      413 1
     423      403      404 1
     424      403      408 1
     425      404      405 1
     426      404      414 1
     427      405      406 1
     428      406      407 1
     429      408      409 1
     430      408      416 1
     431      410      411 1
     432      410      418 1
     433      419      420 1
     434      419      428 1
     435      419      429 1
     436      419      430 1
     437      420      421 1
     438      420      431 1
     439      420      432 1
     440      421      422 1
     441      421      433 1
     442      422      423 1
     443      422      434 1
     444      422      435 1
     445      423      424 1
     446      423      436 1
     447      423      437 1
     448      424      425 1
     449      424      438 1
     450      425      426 1
     451      425      439 1
     452      425      440 1
     453      426      427 1
     454      426      441 1
     455      426      442 1
     456      427      459 1
     457      427      627 1
     458      428      443 1
     459      428      450 1
     460      444      445 1
     461      444      449 1
     462      444      456 1
     463      445      446 1
     464      445      454 1
     465      446      447 1
     466      446      457 1
     467      447      448 1
     468      447      452 1
     469      448      449 1
     470      448      458 1
     471      449      450 1
     472      450      451 1
     473      452      453 1
     474      452      690 1
     475      454      455 1
     476      454      468 1
     477      460      461 1
     478      460      469 1
     479      460      470 1
     480      460      471 1
     481      461      462 1
     482      461      472 1
     483      461      473 1
     484      462      463 1
     485      462      474 1
     486      463      464 1
     487      463      475 1
     488      463      476 1
     489      464      465 1
     490      464      477 1
     491      464      478 1
     492      465      466 1
     493      465      479 1
     494      466      467 1
     495      466      480 1
     496      466      481 1
     497      467      468 1
     498      467      482 1
     499      467      483 1
     500      468      500 1
     501      469      484 1
     502      469      491 1
     503      485      486 1
     504      485      490 1
     505      485      497 1
     506      486      487 1
     507      486      495 1
     508      487      488 1
     509      487      498 1
     510      488      489 1
     511      488      493 1
     512      489      490 1
     513      489      499 1
     514      490      491 1
     515      491      492 1
     516      493      494 1
     517      493      501 1
     518      495      496 1
     519      495      510 1
     520      502      503 1
     521      502      511 1
     522      502      512 1
     523      502      513 1
     524      503      504 1
     525      503      514 1
     526      503      515 1
     527      504      505 1
     528      504      516 1
     529      505      506 1
     530      505      517 1
     531      505      518 1
     532      506      507 1
     533      506      519 1
     534      506      520 1
     535      507      508 1
     536      507      521 1
     537      508      509 1
     538      508      522 1
     539      508      523 1
     540      509      510 1
     541      509      524 1
     542      509      525 1
     543      510      542 1
     544      511      526 1
     545      511      533 1
     546      527      528 1
     547      527      532 1
     548      527      539 1
     549      528      529 1
     550      528      537 1
     551      529      530 1
     552      529      540 1
     553      530      531 1
     554      530      535 1
     555      531      532 1
     556      531      541 1
     557      532      533 1
     558      533      534 1
     559      535      536 1
     560      535      543 1
     561      537      538 1
     562      537      552 1
     563      544      545 1
     564      544      553 1
     565      544      554 1
     566      544      555 1
     567      545      546 1
     568      545      556 1
     569      545      557 1
     570      546      547 1
     571      546      558 1
     572      547      548 1
     573      547      559 1
     574      547      560 1
     575      548      549 1
     576      548      561 1
     577      548      562 1
     578      549      550 1
     579      549      563 1
     580      550      551 1
     581      550      564 1
     582      550      565 1
     583      551      552 1
     584      551      566 1
     585      551      567 1
     586      552      584 1
     587      553      568 1
     588      553      575 1
     589      569      570 1
     590      569      574 1
     591      569      581 1
     592      570      571 1
     593      570      579 1
     594      571      572 1
     595      571      582 1
     596      572      573 1
     597      572      577 1
     598      573      574 1
     599      573      583 1
     600      574      575 1
     601      575      576 1
     602      577      578 1
     603      577      716 1
     604      579      580 1
     605      579      593 1
     606      585      586 1
     607      585      594 1
     608      585      595 1
     609      585      596 1
     610      586      587 1
     611      586      597 1
     612      586      598 1
     613      587      588 1
     614      587      599 1
     615      588      589 1
     616      588      600 1
     617      588      601 1
     618      589      590 1
     619      589      602 1
     620      589      603 1
     621      590      591 1
     622      590      604 1
     623      591      592 1
     624      591      605 1
     625      591      606 1
     626      592      593 1
     627      592      607 1
     628      592      608 1
     629      593      625 1
     630      594      609 1
     631      594      616 1
     632      610      611 1
     633      610      615 1
     634      610      622 1
     635      611      612 1
     636      611      620 1
     637      612      613 1
     638      612      623 1
     639      613      614 1
     640      613      618 1
     641      614      615 1
     642      614      624 1
     643      615      616 1
     644      616      617 1
     645      618      619 1
     646      618      626 1
     647      620      621 1
     648      620      628 1
     649      629      630 1
     650      629      638 1
     651      629      639 1
     652      629      640 1
     653      630      631 1
     654      630      641 1
     655      630      642 1
     656      631      632 1
     657      631      643 1
     658      632      633 1
     659      632      644 1
     660      632      645 1
     661      633      634 1
     662      633      646 1
     663      633      647 1
     664      634      635 1
     665      634      648 1
     666      635      636 1
     667      635      649 1
     668      635      650 1
     669      636      637 1
     670      636      651 1
     671      636      652 1
     672      637      653 1
     673      638      654 1
     674      655      656 1
     675      655      664 1
     676      655      665 1
     677      655      666 1
     678      656      657 1
     679      656      667 1
     680      656      668 1
     681      657      658 1
     682      657      669 1
     683      658      659 1
     684      658      670 1
     685      658      671 1
     686      659      660 1
     687      659      672 1
     688      659      673 1
     689      660      661 1
     690      660      674 1
     691      661      662 1
     692      661      675 1
     693      661      676 1
     694      662      663 1
     695      662      677 1
     696      662      678 1
     697      663      679 1
     698      664      680 1
     699      681      682 1
     700      681      690 1
     701      681      691 1
     702      681      692 1
     703      682      683 1
     704      682      693 1
     705      682      694 1
     706      683      684 1
     707      683      695 1
     708      684      685 1
     709      684      696 1
     710      684      697 1
     711      685      686 1
     712      685      698 1
     713      685      699 1
     714      686      687 1
     715      686      700 1
     716      687      688 1
     717      687      701 1
     718      687      702 1
     719      688      689 1
     720      688      703 1
     721      688      704 1
     722      689      705 1
     723      690      706 1
     724      707      708 1
     725      707      716 1
     726      707      717 1
     727      707      718 1
     728      708      709 1
     729      708      719 1
     730      708      720 1
     731      709      710 1
     732      709      721 1
     733      710      711 1
     734      710      722 1
     735      710      723 1
     736      711      712 1
     737      711      724 1
     738      711      725 1
     739      712      713 1
     740      712      726 1
     741      713      714 1
     742      713      727 1
     743      713      728 1
     744      714      715 1
     745      714      729 1
     746      714      730 1
     747      715      731 1
     748      716      732 1
@<TRIPOS>SUBSTRUCTURE
       1 RES             1 RESIDUE    0 **** ROOT      0
