@<TRIPOS>MOLECULE
RES
1249 1303 1 0 1
SMALL
NO_CHARGES
@<TRIPOS>CRYSIN
  246.2706    61.2377    82.4114    90.0000    90.0000    90.0000 1 1
@<TRIPOS>ATOM
       1 C           22.1685    87.3015    12.0099 C             1 RES     
       2 C           24.0175    88.8916    11.9257 C             1 RES     
       3 C           28.6829    89.1665    11.9258 C             1 RES     
       4 C           23.7662    83.9095    11.9258 C             1 RES     
       5 C           22.2287    85.2696    11.9258 C             1 RES     
       6 C           25.9542    87.5906    11.9257 C             1 RES     
       7 H           24.0727    89.9601    11.9257 H             1 RES     
       8 H           21.1975    88.4193    11.9258 H             1 RES     
       9 C           25.8802    85.3878    11.9257 C             1 RES     
      10 H           23.7053    82.8412    11.9258 H             1 RES     
      11 O           39.9680    83.8959    13.6693 O             1 RES     
      12 H           26.8208    84.8776    11.9257 H             1 RES     
      13 C           31.3027    87.9780    11.9871 C             1 RES     
      14 H           28.6871    89.7842    11.0522 H             1 RES     
      15 H           28.6863    89.6693    12.8703 H             1 RES     
      16 C           33.3332    89.5336    11.9258 C             1 RES     
      17 C           35.5260    85.1560    12.8325 C             1 RES     
      18 C           31.1549    84.9567    11.9258 C             1 RES     
      19 C           35.4804    88.3118    11.8839 C             1 RES     
      20 C           33.2406    83.9451    11.8072 C             1 RES     
      21 H           33.4419    82.7110    11.6638 H             1 RES     
      22 H           33.3618    90.6032    11.9258 H             1 RES     
      23 H           36.3227    87.9971    11.4817 H             1 RES     
      24 H           30.1889    84.4964    11.9258 H             1 RES     
      25 O           20.3061    84.4145    12.7378 O             1 RES     
      26 C           18.5046    85.7194    13.5747 C             1 RES     
      27 C           15.7411    84.7501    13.4540 C             1 RES     
      28 H           18.4449    86.1609    14.9749 H             1 RES     
      29 H           18.0163    86.0407    12.1244 H             1 RES     
      30 C           43.2311    89.4854    15.8682 C             1 RES     
      31 O           13.4650    86.1688    11.6616 O             1 RES     
      32 H           46.6004    90.8151    16.4092 H             1 RES     
      33 H           45.8637    90.8642    17.8779 H             1 RES     
      34 H           48.6579    79.5453    20.3809 H             1 RES     
      35 C           41.0125    85.0595    13.4645 C             1 RES     
      36 C           43.7184    83.6339    14.0824 C             1 RES     
      37 H           39.9975    85.9218    13.9609 H             1 RES     
      38 O           41.2683    85.6718    11.8713 O             1 RES     
      39 H           41.1981    86.1770    10.8058 H             1 RES     
      40 N           45.0948    84.8151    13.9517 N             1 RES     
      41 H           43.3733    83.1850    15.1313 H             1 RES     
      42 H           44.2298    82.7414    12.5038 H             1 RES     
      43 C           46.9024    84.1959    18.1705 C             1 RES     
      44 H           44.9733    86.1049    13.9505 H             1 RES     
      45 C           46.8435    86.5618    17.8299 C             1 RES     
      46 H           49.6916    79.4128    18.5970 H             1 RES     
      47 C           49.1241    82.6526    19.2950 C             1 RES     
      48 C           48.9978    88.4601    18.6029 C             1 RES     
      49 H           54.3070    92.4197    20.0213 H             1 RES     
      50 C           45.9289    90.2397    17.0116 C             1 RES     
      51 C           50.8535    86.9723    19.6108 C             1 RES     
      52 H           42.6851    90.3734    15.6270 H             1 RES     
      53 H           50.3882    79.7168    20.2088 H             1 RES     
      54 C           51.1177    83.9923    20.0584 C             1 RES     
      55 C           53.3798    88.3277    19.3247 C             1 RES     
      56 C           11.0893    86.5564    11.2515 C             1 RES     
      57 H           43.3698    88.9005    14.9831 H             1 RES     
      58 C           49.4419    79.8957    19.7426 C             1 RES     
      59 N           55.6118    82.8459    17.5687 N             1 RES     
      60 H           42.6844    88.9156    16.5903 H             1 RES     
      61 H           15.2785    84.9274    12.2300 H             1 RES     
      62 H           49.0032    89.5240    18.4888 H             1 RES     
      63 C           54.6689    91.8039    20.8180 C             1 RES     
      64 H           54.1460    87.7313    18.5333 H             1 RES     
      65 H           53.7561    88.5474    19.5779 H             1 RES     
      66 H           54.3877    92.2335    21.7568 H             1 RES     
      67 H           55.7354    91.7376    20.7613 H             1 RES     
      68 H           16.3191    83.4773    12.3005 H             1 RES     
      69 H           55.8366    83.5346    16.5582 H             1 RES     
      70 H           11.2128    86.3589    12.8610 H             1 RES     
      71 H           11.6716    87.1380    10.0000 H             1 RES     
      72 H           45.3505    83.0879    13.9496 H             1 RES     
      73 C           71.2846    82.7630    17.7885 C             1 RES     
      74 C           73.2229    84.2192    17.5117 C             1 RES     
      75 C           77.8881    84.1810    17.2354 C             1 RES     
      76 C           72.6550    79.2720    17.8062 C             1 RES     
      77 C           71.2101    80.7300    17.8157 C             1 RES     
      78 C           75.0693    82.7934    17.4766 C             1 RES     
      79 H           73.3461    85.2801    17.4485 H             1 RES     
      80 H           70.3836    83.9373    17.6961 H             1 RES     
      81 C           74.8552    80.6035    17.6047 C             1 RES     
      82 H           72.5262    78.2116    17.8697 H             1 RES     
      83 O           88.8980    78.2661    18.6388 O             1 RES     
      84 H           75.7597    80.0322    17.5808 H             1 RES     
      85 C           80.4258    82.8248    17.2168 C             1 RES     
      86 H           77.8797    84.7504    16.3296 H             1 RES     
      87 H           77.9797    84.7314    18.1484 H             1 RES     
      88 C           82.5441    84.2357    16.9546 C             1 RES     
      89 C           84.5034    79.7749    17.9822 C             1 RES     
      90 C           80.0823    79.8211    17.3340 C             1 RES     
      91 C           84.6027    82.8725    16.8615 C             1 RES     
      92 C           82.0885    78.6674    17.1560 C             1 RES     
      93 H           82.2019    77.4168    17.0713 H             1 RES     
      94 H           82.6408    85.2995    16.8929 H             1 RES     
      95 H           85.3978    82.4815    16.4312 H             1 RES     
      96 H           79.0907    79.4271    17.4139 H             1 RES     
      97 O           69.2886    80.0492    18.7808 O             1 RES     
      98 C           67.6269    81.5138    19.6424 C             1 RES     
      99 C           64.8050    80.7266    19.7311 C             1 RES     
     100 H           67.6789    82.0312    21.0166 H             1 RES     
     101 H           67.0747    81.7905    18.2059 H             1 RES     
     102 C           92.6358    83.7325    20.3337 C             1 RES     
     103 O           62.5214    82.1983    17.9919 O             1 RES     
     104 H           96.1092    84.8604    20.6097 H             1 RES     
     105 H           95.4658    85.0357    22.1123 H             1 RES     
     106 H           97.6767    73.7022    25.0880 H             1 RES     
     107 C           90.0005    79.3449    18.3107 C             1 RES     
     108 C           92.6420    77.7759    18.8555 C             1 RES     
     109 H           89.0738    80.2980    18.8138 H             1 RES     
     110 O           90.1995    79.8542    16.6738 O             1 RES     
     111 H           90.0984    80.3064    15.5871 H             1 RES     
     112 N           94.0806    78.8539    18.5818 N             1 RES     
     113 H           92.3320    77.4067    19.9457 H             1 RES     
     114 H           93.0006    76.7695    17.3035 H             1 RES     
     115 C           96.0929    78.3374    22.7210 C             1 RES     
     116 H           94.0417    80.1471    18.5148 H             1 RES     
     117 C           96.1647    80.6808    22.2517 C             1 RES     
     118 H           98.5919    73.4074    23.2593 H             1 RES     
     119 C           98.2746    76.7101    23.8046 C             1 RES     
     120 C           98.4778    82.4687    22.7949 C             1 RES     
     121 H          104.1036    86.1333    23.6891 H             1 RES     
     122 C           95.4394    84.3636    21.2802 C             1 RES     
     123 C          100.2916    80.9151    23.7796 C             1 RES     
     124 H           92.1341    84.6412    20.0738 H             1 RES     
     125 H           99.4011    73.7483    24.8100 H             1 RES     
     126 C          100.3914    77.9517    24.3787 C             1 RES     
     127 C          102.8777    82.0815    23.2768 C             1 RES     
     128 C           60.1550    82.7219    17.6941 C             1 RES     
     129 H           92.6840    83.0940    19.4766 H             1 RES     
     130 C           98.4421    73.9654    24.3881 C             1 RES     
     131 N          104.6472    76.3781    21.7100 N             1 RES     
     132 H           92.0978    83.2392    21.1162 H             1 RES     
     133 H           64.2826    80.8699    18.5269 H             1 RES     
     134 H           98.5443    83.5224    22.6210 H             1 RES     
     135 C          104.4723    85.5373    24.4977 C             1 RES     
     136 H          103.5558    81.3945    22.4786 H             1 RES     
     137 H          103.2816    82.2886    23.4958 H             1 RES     
     138 H          104.2754    86.0334    25.4251 H             1 RES     
     139 H          105.5271    85.3969    24.3853 H             1 RES     
     140 H           65.2310    79.3592    18.6206 H             1 RES     
     141 H          104.8550    76.9962    20.6513 H             1 RES     
     142 H           60.3612    82.6013    19.3028 H             1 RES     
     143 H           60.6977    83.1968    16.3813 H             1 RES     
     144 H           94.2251    77.1157    18.6626 H             1 RES     
     145 H          104.6228    75.0063    21.7837 H             1 RES     
     146 C          120.2681    75.2586    21.0572 C             1 RES     
     147 C          122.2754    76.5654    20.5909 C             1 RES     
     148 C          126.9040    76.2008    20.0566 C             1 RES     
     149 C          121.4118    71.6895    21.1945 C             1 RES     
     150 C          120.0659    73.2394    21.2028 C             1 RES     
     151 C          124.0218    75.0193    20.5328 C             1 RES     
     152 H          122.4619    77.6109    20.4613 H             1 RES     
     153 H          119.4399    76.4841    20.9494 H             1 RES     
     154 C          123.6765    72.8584    20.7957 C             1 RES     
     155 H          121.2197    70.6449    21.3247 H             1 RES     
     156 O          137.5783    69.6444    21.1726 O             1 RES     
     157 H          124.5397    72.2275    20.7534 H             1 RES     
     158 C          129.3444    74.6787    19.9725 C             1 RES     
     159 H          126.8780    76.7210    19.1221 H             1 RES     
     160 H          127.0846    76.7909    20.9307 H             1 RES     
     161 C          131.5290    75.9291    19.5133 C             1 RES     
     162 C          133.2576    71.4072    20.6789 C             1 RES     
     163 C          128.8177    71.7150    20.2775 C             1 RES     
     164 C          133.4873    74.4282    19.3820 C             1 RES     
     165 C          130.7322    70.4220    20.0528 C             1 RES     
     166 H          130.7603    69.1638    20.0324 H             1 RES     
     167 H          131.6894    76.9793    19.3864 H             1 RES     
     168 H          134.2289    73.9628    18.9305 H             1 RES     
     169 H          127.8095    71.3930    20.4348 H             1 RES     
     170 O          118.1657    72.7403    22.3106 O             1 RES     
     171 C          116.6550    74.3560    23.1800 C             1 RES     
     172 C          113.7989    73.7650    23.4706 C             1 RES     
     173 H          116.8215    74.9401    24.5179 H             1 RES     
     174 H          116.0371    74.5932    21.7634 H             1 RES     
     175 C          141.7512    74.9299    22.3456 C             1 RES     
     176 O          111.5143    75.2929    21.7818 O             1 RES     
     177 H          145.2997    75.8359    22.3630 H             1 RES     
     178 H          144.7593    76.1325    23.8869 H             1 RES     
     179 H          146.4164    64.8483    27.3672 H             1 RES     
     180 C          138.7259    70.6283    20.7232 C             1 RES     
     181 C          141.2897    68.9169    21.2069 C             1 RES     
     182 H          137.8935    71.6664    21.2229 H             1 RES     
     183 O          138.8593    71.0366    19.0516 O             1 RES     
     184 H          138.7227    71.4368    17.9486 H             1 RES     
     185 N          142.7753    69.8804    20.7929 N             1 RES     
     186 H          141.0222    68.6270    22.3317 H             1 RES     
     187 H          141.4905    67.8087    19.6963 H             1 RES     
     188 C          144.9932    69.4484    24.8356 C             1 RES     
     189 H          142.8150    71.1680    20.6555 H             1 RES     
     190 C          145.1863    71.7539    24.2318 C             1 RES     
     191 H          147.2005    64.3974    25.5098 H             1 RES     
     192 C          147.1274    67.7380    25.8852 C             1 RES     
     193 C          147.6369    73.4091    24.5434 C             1 RES     
     194 H          153.5280    76.7310    24.9139 H             1 RES     
     195 C          144.6407    75.4209    23.0967 C             1 RES     
     196 C          149.4032    71.7914    25.5109 C             1 RES     
     197 H          141.2939    75.8552    22.0634 H             1 RES     
     198 H          148.1206    64.7643    26.9911 H             1 RES     
     199 C          149.3495    68.8635    26.2692 C             1 RES     
     200 C          152.0239    72.7543    24.7994 C             1 RES     
     201 C          109.1727    75.9572    21.5879 C             1 RES     
     202 H          141.7075    74.2455    21.5243 H             1 RES     
     203 C          147.1540    65.0226    26.6120 C             1 RES     
     204 N          153.3299    66.8709    23.4595 N             1 RES     
     205 H          141.2304    74.5155    23.1834 H             1 RES     
     206 H          113.2161    73.8796    22.2913 H             1 RES     
     207 H          147.7598    74.4454    24.3070 H             1 RES     
     208 C          153.9054    76.1550    25.7328 C             1 RES     
     209 H          152.6082    71.9825    24.0045 H             1 RES     
     210 H          152.4525    72.9451    24.9835 H             1 RES     
     211 H          153.7961    76.7111    26.6404 H             1 RES     
     212 H          154.9406    75.9386    25.5696 H             1 RES     
     213 H          114.0701    72.3157    22.4167 H             1 RES     
     214 H          153.5133    67.4174    22.3577 H             1 RES     
     215 H          109.4661    75.9077    23.1867 H             1 RES     
     216 H          109.6655    76.3252    20.2221 H             1 RES     
     217 H          153.2225    65.5096    23.6115 H             1 RES     
     218 C          168.7811    64.6763    21.9980 C             1 RES     
     219 C          170.8364    65.8195    21.3474 C             1 RES     
     220 C          175.3922    65.1186    20.5764 C             1 RES     
     221 C          169.7011    61.0508    22.2718 C             1 RES     
     222 C          168.4596    62.6855    22.2681 C             1 RES     
     223 C          172.4741    64.1592    21.2788 C             1 RES     
     224 H          171.0811    66.8420    21.1489 H             1 RES     
     225 H          168.0278    65.9470    21.8679 H             1 RES     
     226 C          172.0080    62.0431    21.6817 C             1 RES     
     227 H          169.4509    60.0297    22.4711 H             1 RES     
     228 O          185.6744    57.9305    21.4608 O             1 RES     
     229 H          172.8251    61.3544    21.6268 H             1 RES     
     230 C          177.7214    63.4344    20.4417 C             1 RES     
     231 H          175.3439    65.5897    19.6170 H             1 RES     
     232 H          175.6618    65.7404    21.4044 H             1 RES     
     233 C          179.9500    64.5100    19.7914 C             1 RES     
     234 C          181.4531    59.9501    21.1111 C             1 RES     
     235 C          177.0259    60.5327    20.9420 C             1 RES     
     236 C          181.7974    62.8766    19.6355 C             1 RES     
     237 C          178.8373    59.1044    20.6837 C             1 RES     
     238 H          178.7839    57.8479    20.7325 H             1 RES     
     239 H          180.1692    65.5390    19.5969 H             1 RES     
     240 H          182.4796    62.3396    19.1701 H             1 RES     
     241 H          176.0103    60.2875    21.1733 H             1 RES     
     242 O          166.6008    62.3735    23.5068 O             1 RES     
     243 C          165.2506    64.1300    24.3670 C             1 RES     
     244 C          162.3849    63.7475    24.8497 C             1 RES     
     245 H          165.5333    64.7711    25.6585 H             1 RES     
     246 H          164.5658    64.3333    22.9760 H             1 RES     
     247 C          190.2381    62.9793    22.0992 C             1 RES     
     248 O          160.1060    65.3340    23.2080 O             1 RES     
     249 H          193.8318    63.6455    21.8671 H             1 RES     
     250 H          193.4031    64.0571    23.3998 H             1 RES     
     251 H          194.5416    52.8857    27.4114 H             1 RES     
     252 C          186.8535    58.8105    20.8932 C             1 RES     
     253 C          189.3273    56.9591    21.3283 C             1 RES     
     254 H          186.1202    59.9267    21.3795 H             1 RES     
     255 O          186.9130    59.1206    19.1965 O             1 RES     
     256 H          186.7369    59.4706    18.0821 H             1 RES     
     257 N          190.8440    57.7980    20.7783 N             1 RES     
     258 H          189.1092    56.7473    22.4808 H             1 RES     
     259 H          189.3668    55.7623    19.8736 H             1 RES     
     260 C          193.2665    57.4315    24.7085 C             1 RES     
     261 H          190.9575    59.0711    20.5667 H             1 RES     
     262 C          193.5698    59.6840    23.9661 C             1 RES     
     263 H          195.1834    52.2865    25.5413 H             1 RES     
     264 C          195.3459    55.6395    25.7317 C             1 RES     
     265 C          196.1351    61.1856    24.0465 C             1 RES     
     266 H          202.2377    64.1208    23.8994 H             1 RES     
     267 C          193.1925    63.3146    22.6588 C             1 RES     
     268 C          197.8492    59.5064    25.0032 C             1 RES     
     269 H          189.8247    63.9170    21.7915 H             1 RES     
     270 H          196.2116    52.6683    26.9458 H             1 RES     
     271 C          197.6541    56.6325    25.9269 C             1 RES     
     272 C          200.4790    60.2532    24.0932 C             1 RES     
     273 C          157.8041    66.1424    23.1083 C             1 RES     
     274 H          190.1021    62.2572    21.3215 H             1 RES     
     275 C          195.2425    52.9704    26.6075 C             1 RES     
     276 N          201.3252    54.2334    23.0154 N             1 RES     
     277 H          189.7427    62.6452    22.9869 H             1 RES     
     278 H          161.7414    63.8387    23.7003 H             1 RES     
     279 H          196.3096    62.1975    23.7457 H             1 RES     
     280 C          202.6256    63.5646    24.7271 C             1 RES     
     281 H          200.9645    59.4033    23.3115 H             1 RES     
     282 H          200.9291    60.4242    24.2420 H             1 RES     
     283 H          202.6061    64.1738    25.6066 H             1 RES     
     284 H          203.6333    63.2713    24.5187 H             1 RES     
     285 H          162.5000    62.2300    23.8655 H             1 RES     
     286 H          201.4772    54.7077    21.8762 H             1 RES     
     287 H          158.1883    66.1574    24.6884 H             1 RES     
     288 H          158.2372    66.4044    21.6986 H             1 RES     
     289 H          190.7812    56.0734    21.0436 H             1 RES     
     290 H          201.1405    52.8922    23.2496 H             1 RES     
     291 C          216.4908    50.9364    20.8179 C             1 RES     
     292 C          218.5723    51.9039    19.9900 C             1 RES     
     293 C          223.0203    50.8602    19.0061 C             1 RES     
     294 C          217.1924    47.2768    21.2433 C             1 RES     
     295 C          216.0596    48.9885    21.2171 C             1 RES     
     296 C          220.0939    50.1364    19.9235 C             1 RES     
     297 H          218.8695    52.8959    19.7209 H             1 RES     
     298 H          215.8135    52.2461    20.6588 H             1 RES     
     299 C          219.5186    48.0802    20.4703 C             1 RES     
     300 H          216.8899    46.2866    21.5135 H             1 RES     
     301 O          232.8576    43.0568    19.7170 O             1 RES     
     302 H          220.2855    47.3366    20.4086 H             1 RES     
     303 C          225.2252    49.0192    18.8363 C             1 RES     
     304 H          222.9451    51.2825    18.0259 H             1 RES     
     305 H          223.3778    51.5052    19.7815 H             1 RES     
     306 C          227.4752    49.9077    18.0029 C             1 RES     
     307 C          228.7604    45.3330    19.4910 C             1 RES     
     308 C          224.3771    46.2008    19.5372 C             1 RES     
     309 C          229.2022    48.1485    17.8360 C             1 RES     
     310 C          226.0752    44.6430    19.2588 C             1 RES     
     311 H          225.9448    43.3972    19.3811 H             1 RES     
     312 H          227.7476    50.9082    17.7388 H             1 RES     
     313 H          229.8198    47.5434    17.3642 H             1 RES     
     314 H          223.3636    46.0366    19.8384 H             1 RES     
     315 O          214.2617    48.8670    22.5734 O             1 RES     
     316 C          213.0797    50.7526    23.4076 C             1 RES     
     317 C          210.2294    50.5885    24.0706 C             1 RES     
     318 H          213.4791    51.4403    24.6432 H             1 RES     
     319 H          212.3278    50.9280    22.0479 H             1 RES     
     320 C          237.7638    47.8155    19.8141 C             1 RES     
     321 O          207.9626    52.2356    22.4723 O             1 RES     
     322 H          241.3725    48.2267    19.3443 H             1 RES     
     323 H          241.0628    48.7460    20.8729 H             1 RES     
     324 H          241.7235    37.7494    25.4368 H             1 RES     
     325 C          234.0546    43.8249    19.0358 C             1 RES     
     326 C          236.4268    41.8376    19.4353 C             1 RES     
     327 H          233.4242    45.0117    19.4988 H             1 RES     
     328 O          234.0327    44.0409    17.3237 O             1 RES     
     329 H          233.8133    44.3429    16.2029 H             1 RES     
     330 N          237.9585    42.5431    18.7550 N             1 RES     
     331 H          236.2647    41.7016    20.6083 H             1 RES     
     332 H          236.3033    40.5661    18.0503 H             1 RES     
     333 C          240.5822    42.2222    22.5579 C             1 RES     
     334 H          238.1402    43.7929    18.4661 H             1 RES     
     335 C          240.9839    44.4073    21.6742 C             1 RES     
     336 H          242.2135    37.0113    23.5704 H             1 RES     
     337 C          242.6004    40.3513    23.5624 C             1 RES     
     338 C          243.6399    45.7361    21.5263 C             1 RES     
     339 H          249.8975    48.2447    20.8732 H             1 RES     
     340 C          240.7617    47.9814    20.1878 C             1 RES     
     341 C          245.2973    43.9985    22.4786 C             1 RES     
     342 H          237.3935    48.7614    19.4777 H             1 RES     
     343 H          243.3456    37.3966    24.8915 H             1 RES     
     344 C          244.9747    41.1966    23.5721 C             1 RES     
     345 C          247.9105    44.5189    21.3824 C             1 RES     
     346 C          205.7150    53.1898    22.4561 C             1 RES     
     347 H          237.5360    47.0643    19.0871 H             1 RES     
     348 C          242.3794    37.7447    24.5914 C             1 RES     
     349 N          248.3057    38.4077    20.5994 N             1 RES     
     350 H          237.3018    47.5624    20.7455 H             1 RES     
     351 H          209.5257    50.6621    22.9557 H             1 RES     
     352 H          243.8604    46.7169    21.1598 H             1 RES     
     353 C          250.2978    47.7080    21.7079 C             1 RES     
     354 H          248.2936    43.5986    20.6238 H             1 RES     
     355 H          248.3787    44.6670    21.4959 H             1 RES     
     356 H          250.3695    48.3624    22.5515 H             1 RES     
     357 H          251.2706    47.3374    21.4603 H             1 RES     
     358 H          210.1887    49.0172    23.1684 H             1 RES     
     359 H          248.4196    38.8104    19.4286 H             1 RES     
     360 H          206.1928    53.2620    24.0090 H             1 RES     
     361 H          206.0793    53.3478    21.0119 H             1 RES     
     362 H          237.8018    40.8429    19.1200 H             1 RES     
     363 H          248.0501    37.0960    20.9186 H             1 RES     
     364 H           10.0000    86.5181    11.1579 H             1 RES     
     365 H          249.3339    38.0798    20.4203 H             1 RES     
     366 C           22.1685    87.3015    42.0099 C             1 RES     
     367 C           24.0175    88.8916    41.9257 C             1 RES     
     368 C           28.6829    89.1665    41.9258 C             1 RES     
     369 C           23.7662    83.9095    41.9258 C             1 RES     
     370 C           22.2287    85.2696    41.9258 C             1 RES     
     371 C           25.9542    87.5906    41.9257 C             1 RES     
     372 H           24.0727    89.9601    41.9257 H             1 RES     
     373 H           21.1975    88.4193    41.9258 H             1 RES     
     374 C           25.8802    85.3878    41.9257 C             1 RES     
     375 H           23.7053    82.8412    41.9258 H             1 RES     
     376 O           39.9680    83.8959    43.6693 O             1 RES     
     377 H           26.8208    84.8776    41.9257 H             1 RES     
     378 C           31.3027    87.9780    41.9871 C             1 RES     
     379 H           28.6871    89.7842    41.0522 H             1 RES     
     380 H           28.6863    89.6693    42.8703 H             1 RES     
     381 C           33.3332    89.5336    41.9258 C             1 RES     
     382 C           35.5260    85.1560    42.8325 C             1 RES     
     383 C           31.1549    84.9567    41.9258 C             1 RES     
     384 C           35.4804    88.3118    41.8839 C             1 RES     
     385 C           33.2406    83.9451    41.8072 C             1 RES     
     386 H           33.4419    82.7110    41.6638 H             1 RES     
     387 H           33.3618    90.6032    41.9258 H             1 RES     
     388 H           36.3227    87.9971    41.4817 H             1 RES     
     389 H           30.1889    84.4964    41.9258 H             1 RES     
     390 O           20.3061    84.4145    42.7378 O             1 RES     
     391 C           18.5046    85.7194    43.5747 C             1 RES     
     392 C           15.7411    84.7501    43.4540 C             1 RES     
     393 H           18.4449    86.1609    44.9749 H             1 RES     
     394 H           18.0163    86.0407    42.1244 H             1 RES     
     395 C           43.2311    89.4854    45.8682 C             1 RES     
     396 O           13.4650    86.1688    41.6616 O             1 RES     
     397 H           46.6004    90.8151    46.4092 H             1 RES     
     398 H           45.8637    90.8642    47.8779 H             1 RES     
     399 H           48.6579    79.5453    50.3809 H             1 RES     
     400 C           41.0125    85.0595    43.4645 C             1 RES     
     401 C           43.7184    83.6339    44.0824 C             1 RES     
     402 H           39.9975    85.9218    43.9609 H             1 RES     
     403 O           41.2683    85.6718    41.8713 O             1 RES     
     404 H           41.1981    86.1770    40.8058 H             1 RES     
     405 N           45.0948    84.8151    43.9517 N             1 RES     
     406 H           43.3733    83.1850    45.1313 H             1 RES     
     407 H           44.2298    82.7414    42.5038 H             1 RES     
     408 C           46.9024    84.1959    48.1705 C             1 RES     
     409 H           44.9733    86.1049    43.9505 H             1 RES     
     410 C           46.8435    86.5618    47.8299 C             1 RES     
     411 H           49.6916    79.4128    48.5970 H             1 RES     
     412 C           49.1241    82.6526    49.2950 C             1 RES     
     413 C           48.9978    88.4601    48.6029 C             1 RES     
     414 H           54.3070    92.4197    50.0213 H             1 RES     
     415 C           45.9289    90.2397    47.0116 C             1 RES     
     416 C           50.8535    86.9723    49.6108 C             1 RES     
     417 H           42.6851    90.3734    45.6270 H             1 RES     
     418 H           50.3882    79.7168    50.2088 H             1 RES     
     419 C           51.1177    83.9923    50.0584 C             1 RES     
     420 C           53.3798    88.3277    49.3247 C             1 RES     
     421 C           11.0893    86.5564    41.2515 C             1 RES     
     422 H           43.3698    88.9005    44.9831 H             1 RES     
     423 C           49.4419    79.8957    49.7426 C             1 RES     
     424 N           55.6118    82.8459    47.5687 N             1 RES     
     425 H           42.6844    88.9156    46.5903 H             1 RES     
     426 H           15.2785    84.9274    42.2300 H             1 RES     
     427 H           49.0032    89.5240    48.4888 H             1 RES     
     428 C           54.6689    91.8039    50.8180 C             1 RES     
     429 H           54.1460    87.7313    48.5333 H             1 RES     
     430 H           53.7561    88.5474    49.5779 H             1 RES     
     431 H           54.3877    92.2335    51.7568 H             1 RES     
     432 H           55.7354    91.7376    50.7613 H             1 RES     
     433 H           16.3191    83.4773    42.3005 H             1 RES     
     434 H           55.8366    83.5346    46.5582 H             1 RES     
     435 H           11.2128    86.3589    42.8610 H             1 RES     
     436 H           11.6716    87.1380    40.0000 H             1 RES     
     437 C           71.2846    82.7630    47.7885 C             1 RES     
     438 C           73.2229    84.2192    47.5117 C             1 RES     
     439 C           77.8881    84.1810    47.2354 C             1 RES     
     440 C           72.6550    79.2720    47.8062 C             1 RES     
     441 C           71.2101    80.7300    47.8157 C             1 RES     
     442 C           75.0693    82.7934    47.4766 C             1 RES     
     443 H           73.3461    85.2801    47.4485 H             1 RES     
     444 H           70.3836    83.9373    47.6961 H             1 RES     
     445 C           74.8552    80.6035    47.6047 C             1 RES     
     446 H           72.5262    78.2116    47.8697 H             1 RES     
     447 O           88.8980    78.2661    48.6388 O             1 RES     
     448 H           75.7597    80.0322    47.5808 H             1 RES     
     449 C           80.4258    82.8248    47.2168 C             1 RES     
     450 H           77.8797    84.7504    46.3296 H             1 RES     
     451 H           77.9797    84.7314    48.1484 H             1 RES     
     452 C           82.5441    84.2357    46.9546 C             1 RES     
     453 C           84.5034    79.7749    47.9822 C             1 RES     
     454 C           80.0823    79.8211    47.3340 C             1 RES     
     455 C           84.6027    82.8725    46.8615 C             1 RES     
     456 C           82.0885    78.6674    47.1560 C             1 RES     
     457 H           82.2019    77.4168    47.0713 H             1 RES     
     458 H           82.6408    85.2995    46.8929 H             1 RES     
     459 H           85.3978    82.4815    46.4312 H             1 RES     
     460 H           79.0907    79.4271    47.4139 H             1 RES     
     461 O           69.2886    80.0492    48.7808 O             1 RES     
     462 C           67.6269    81.5138    49.6424 C             1 RES     
     463 C           64.8050    80.7266    49.7311 C             1 RES     
     464 H           67.6789    82.0312    51.0166 H             1 RES     
     465 H           67.0747    81.7905    48.2059 H             1 RES     
     466 C           92.6358    83.7325    50.3337 C             1 RES     
     467 O           62.5214    82.1983    47.9919 O             1 RES     
     468 H           96.1092    84.8604    50.6097 H             1 RES     
     469 H           95.4658    85.0357    52.1123 H             1 RES     
     470 H           97.6767    73.7022    55.0880 H             1 RES     
     471 C           90.0005    79.3449    48.3107 C             1 RES     
     472 C           92.6420    77.7759    48.8555 C             1 RES     
     473 H           89.0738    80.2980    48.8138 H             1 RES     
     474 O           90.1995    79.8542    46.6738 O             1 RES     
     475 H           90.0984    80.3064    45.5871 H             1 RES     
     476 N           94.0806    78.8539    48.5818 N             1 RES     
     477 H           92.3320    77.4067    49.9457 H             1 RES     
     478 H           93.0006    76.7695    47.3035 H             1 RES     
     479 C           96.0929    78.3374    52.7210 C             1 RES     
     480 H           94.0417    80.1471    48.5148 H             1 RES     
     481 C           96.1647    80.6808    52.2517 C             1 RES     
     482 H           98.5919    73.4074    53.2593 H             1 RES     
     483 C           98.2746    76.7101    53.8046 C             1 RES     
     484 C           98.4778    82.4687    52.7949 C             1 RES     
     485 H          104.1036    86.1333    53.6891 H             1 RES     
     486 C           95.4394    84.3636    51.2802 C             1 RES     
     487 C          100.2916    80.9151    53.7796 C             1 RES     
     488 H           92.1341    84.6412    50.0738 H             1 RES     
     489 H           99.4011    73.7483    54.8100 H             1 RES     
     490 C          100.3914    77.9517    54.3787 C             1 RES     
     491 C          102.8777    82.0815    53.2768 C             1 RES     
     492 C           60.1550    82.7219    47.6941 C             1 RES     
     493 H           92.6840    83.0940    49.4766 H             1 RES     
     494 C           98.4421    73.9654    54.3881 C             1 RES     
     495 N          104.6472    76.3781    51.7100 N             1 RES     
     496 H           92.0978    83.2392    51.1162 H             1 RES     
     497 H           64.2826    80.8699    48.5269 H             1 RES     
     498 H           98.5443    83.5224    52.6210 H             1 RES     
     499 C          104.4723    85.5373    54.4977 C             1 RES     
     500 H          103.5558    81.3945    52.4786 H             1 RES     
     501 H          103.2816    82.2886    53.4958 H             1 RES     
     502 H          104.2754    86.0334    55.4251 H             1 RES     
     503 H          105.5271    85.3969    54.3853 H             1 RES     
     504 H           65.2310    79.3592    48.6206 H             1 RES     
     505 H          104.8550    76.9962    50.6513 H             1 RES     
     506 H           60.3612    82.6013    49.3028 H             1 RES     
     507 H           60.6977    83.1968    46.3813 H             1 RES     
     508 H          104.6228    75.0063    51.7837 H             1 RES     
     509 C          120.2681    75.2586    51.0572 C             1 RES     
     510 C          122.2754    76.5654    50.5909 C             1 RES     
     511 C          126.9040    76.2008    50.0566 C             1 RES     
     512 C          121.4118    71.6895    51.1945 C             1 RES     
     513 C          120.0659    73.2394    51.2028 C             1 RES     
     514 C          124.0218    75.0193    50.5328 C             1 RES     
     515 H          122.4619    77.6109    50.4613 H             1 RES     
     516 H          119.4399    76.4841    50.9494 H             1 RES     
     517 C          123.6765    72.8584    50.7957 C             1 RES     
     518 H          121.2197    70.6449    51.3247 H             1 RES     
     519 O          137.5783    69.6444    51.1726 O             1 RES     
     520 H          124.5397    72.2275    50.7534 H             1 RES     
     521 C          129.3444    74.6787    49.9725 C             1 RES     
     522 H          126.8780    76.7210    49.1221 H             1 RES     
     523 H          127.0846    76.7909    50.9307 H             1 RES     
     524 C          131.5290    75.9291    49.5133 C             1 RES     
     525 C          133.2576    71.4072    50.6789 C             1 RES     
     526 C          128.8177    71.7150    50.2775 C             1 RES     
     527 C          133.4873    74.4282    49.3820 C             1 RES     
     528 C          130.7322    70.4220    50.0528 C             1 RES     
     529 H          130.7603    69.1638    50.0324 H             1 RES     
     530 H          131.6894    76.9793    49.3864 H             1 RES     
     531 H          134.2289    73.9628    48.9305 H             1 RES     
     532 H          127.8095    71.3930    50.4348 H             1 RES     
     533 O          118.1657    72.7403    52.3106 O             1 RES     
     534 C          116.6550    74.3560    53.1800 C             1 RES     
     535 C          113.7989    73.7650    53.4706 C             1 RES     
     536 H          116.8215    74.9401    54.5179 H             1 RES     
     537 H          116.0371    74.5932    51.7634 H             1 RES     
     538 C          141.7512    74.9299    52.3456 C             1 RES     
     539 O          111.5143    75.2929    51.7818 O             1 RES     
     540 H          145.2997    75.8359    52.3630 H             1 RES     
     541 H          144.7593    76.1325    53.8869 H             1 RES     
     542 H          146.4164    64.8483    57.3672 H             1 RES     
     543 C          138.7259    70.6283    50.7232 C             1 RES     
     544 C          141.2897    68.9169    51.2069 C             1 RES     
     545 H          137.8935    71.6664    51.2229 H             1 RES     
     546 O          138.8593    71.0366    49.0516 O             1 RES     
     547 H          138.7227    71.4368    47.9486 H             1 RES     
     548 N          142.7753    69.8804    50.7929 N             1 RES     
     549 H          141.0222    68.6270    52.3317 H             1 RES     
     550 H          141.4905    67.8087    49.6963 H             1 RES     
     551 C          144.9932    69.4484    54.8356 C             1 RES     
     552 H          142.8150    71.1680    50.6555 H             1 RES     
     553 C          145.1863    71.7539    54.2318 C             1 RES     
     554 H          147.2005    64.3974    55.5098 H             1 RES     
     555 C          147.1274    67.7380    55.8852 C             1 RES     
     556 C          147.6369    73.4091    54.5434 C             1 RES     
     557 H          153.5280    76.7310    54.9139 H             1 RES     
     558 C          144.6407    75.4209    53.0967 C             1 RES     
     559 C          149.4032    71.7914    55.5109 C             1 RES     
     560 H          141.2939    75.8552    52.0634 H             1 RES     
     561 H          148.1206    64.7643    56.9911 H             1 RES     
     562 C          149.3495    68.8635    56.2692 C             1 RES     
     563 C          152.0239    72.7543    54.7994 C             1 RES     
     564 C          109.1727    75.9572    51.5879 C             1 RES     
     565 H          141.7075    74.2455    51.5243 H             1 RES     
     566 C          147.1540    65.0226    56.6120 C             1 RES     
     567 N          153.3299    66.8709    53.4595 N             1 RES     
     568 H          141.2304    74.5155    53.1834 H             1 RES     
     569 H          113.2161    73.8796    52.2913 H             1 RES     
     570 H          147.7598    74.4454    54.3070 H             1 RES     
     571 C          153.9054    76.1550    55.7328 C             1 RES     
     572 H          152.6082    71.9825    54.0045 H             1 RES     
     573 H          152.4525    72.9451    54.9835 H             1 RES     
     574 H          153.7961    76.7111    56.6404 H             1 RES     
     575 H          154.9406    75.9386    55.5696 H             1 RES     
     576 H          114.0701    72.3157    52.4167 H             1 RES     
     577 H          153.5133    67.4174    52.3577 H             1 RES     
     578 H          109.4661    75.9077    53.1867 H             1 RES     
     579 H          109.6655    76.3252    50.2221 H             1 RES     
     580 H          153.2225    65.5096    53.6115 H             1 RES     
     581 C          168.7811    64.6763    51.9980 C             1 RES     
     582 C          170.8364    65.8195    51.3474 C             1 RES     
     583 C          175.3922    65.1186    50.5764 C             1 RES     
     584 C          169.7011    61.0508    52.2718 C             1 RES     
     585 C          168.4596    62.6855    52.2681 C             1 RES     
     586 C          172.4741    64.1592    51.2788 C             1 RES     
     587 H          171.0811    66.8420    51.1489 H             1 RES     
     588 H          168.0278    65.9470    51.8679 H             1 RES     
     589 C          172.0080    62.0431    51.6817 C             1 RES     
     590 H          169.4509    60.0297    52.4711 H             1 RES     
     591 O          185.6744    57.9305    51.4608 O             1 RES     
     592 H          172.8251    61.3544    51.6268 H             1 RES     
     593 C          177.7214    63.4344    50.4417 C             1 RES     
     594 H          175.3439    65.5897    49.6170 H             1 RES     
     595 H          175.6618    65.7404    51.4044 H             1 RES     
     596 C          179.9500    64.5100    49.7914 C             1 RES     
     597 C          181.4531    59.9501    51.1111 C             1 RES     
     598 C          177.0259    60.5327    50.9420 C             1 RES     
     599 C          181.7974    62.8766    49.6355 C             1 RES     
     600 C          178.8373    59.1044    50.6837 C             1 RES     
     601 H          178.7839    57.8479    50.7325 H             1 RES     
     602 H          180.1692    65.5390    49.5969 H             1 RES     
     603 H          182.4796    62.3396    49.1701 H             1 RES     
     604 H          176.0103    60.2875    51.1733 H             1 RES     
     605 O          166.6008    62.3735    53.5068 O             1 RES     
     606 C          165.2506    64.1300    54.3670 C             1 RES     
     607 C          162.3849    63.7475    54.8497 C             1 RES     
     608 H          165.5333    64.7711    55.6585 H             1 RES     
     609 H          164.5658    64.3333    52.9760 H             1 RES     
     610 C          190.2381    62.9793    52.0992 C             1 RES     
     611 O          160.1060    65.3340    53.2080 O             1 RES     
     612 H          193.8318    63.6455    51.8671 H             1 RES     
     613 H          193.4031    64.0571    53.3998 H             1 RES     
     614 H          194.5416    52.8857    57.4114 H             1 RES     
     615 C          186.8535    58.8105    50.8932 C             1 RES     
     616 C          189.3273    56.9591    51.3283 C             1 RES     
     617 H          186.1202    59.9267    51.3795 H             1 RES     
     618 O          186.9130    59.1206    49.1965 O             1 RES     
     619 H          186.7369    59.4706    48.0821 H             1 RES     
     620 N          190.8440    57.7980    50.7783 N             1 RES     
     621 H          189.1092    56.7473    52.4808 H             1 RES     
     622 H          189.3668    55.7623    49.8736 H             1 RES     
     623 C          193.2665    57.4315    54.7085 C             1 RES     
     624 H          190.9575    59.0711    50.5667 H             1 RES     
     625 C          193.5698    59.6840    53.9661 C             1 RES     
     626 H          195.1834    52.2865    55.5413 H             1 RES     
     627 C          195.3459    55.6395    55.7317 C             1 RES     
     628 C          196.1351    61.1856    54.0465 C             1 RES     
     629 H          202.2377    64.1208    53.8994 H             1 RES     
     630 C          193.1925    63.3146    52.6588 C             1 RES     
     631 C          197.8492    59.5064    55.0032 C             1 RES     
     632 H          189.8247    63.9170    51.7915 H             1 RES     
     633 H          196.2116    52.6683    56.9458 H             1 RES     
     634 C          197.6541    56.6325    55.9269 C             1 RES     
     635 C          200.4790    60.2532    54.0932 C             1 RES     
     636 C          157.8041    66.1424    53.1083 C             1 RES     
     637 H          190.1021    62.2572    51.3215 H             1 RES     
     638 C          195.2425    52.9704    56.6075 C             1 RES     
     639 N          201.3252    54.2334    53.0154 N             1 RES     
     640 H          189.7427    62.6452    52.9869 H             1 RES     
     641 H          161.7414    63.8387    53.7003 H             1 RES     
     642 H          196.3096    62.1975    53.7457 H             1 RES     
     643 C          202.6256    63.5646    54.7271 C             1 RES     
     644 H          200.9645    59.4033    53.3115 H             1 RES     
     645 H          200.9291    60.4242    54.2420 H             1 RES     
     646 H          202.6061    64.1738    55.6066 H             1 RES     
     647 H          203.6333    63.2713    54.5187 H             1 RES     
     648 H          162.5000    62.2300    53.8655 H             1 RES     
     649 H          201.4772    54.7077    51.8762 H             1 RES     
     650 H          158.1883    66.1574    54.6884 H             1 RES     
     651 H          158.2372    66.4044    51.6986 H             1 RES     
     652 H          190.7812    56.0734    51.0436 H             1 RES     
     653 H          201.1405    52.8922    53.2496 H             1 RES     
     654 C          216.4908    50.9364    50.8179 C             1 RES     
     655 C          218.5723    51.9039    49.9900 C             1 RES     
     656 C          223.0203    50.8602    49.0061 C             1 RES     
     657 C          217.1924    47.2768    51.2433 C             1 RES     
     658 C          216.0596    48.9885    51.2171 C             1 RES     
     659 C          220.0939    50.1364    49.9235 C             1 RES     
     660 H          218.8695    52.8959    49.7209 H             1 RES     
     661 H          215.8135    52.2461    50.6588 H             1 RES     
     662 C          219.5186    48.0802    50.4703 C             1 RES     
     663 H          216.8899    46.2866    51.5135 H             1 RES     
     664 O          232.8576    43.0568    49.7170 O             1 RES     
     665 H          220.2855    47.3366    50.4086 H             1 RES     
     666 C          225.2252    49.0192    48.8363 C             1 RES     
     667 H          222.9451    51.2825    48.0259 H             1 RES     
     668 H          223.3778    51.5052    49.7815 H             1 RES     
     669 C          227.4752    49.9077    48.0029 C             1 RES     
     670 C          228.7604    45.3330    49.4910 C             1 RES     
     671 C          224.3771    46.2008    49.5372 C             1 RES     
     672 C          229.2022    48.1485    47.8360 C             1 RES     
     673 C          226.0752    44.6430    49.2588 C             1 RES     
     674 H          225.9448    43.3972    49.3811 H             1 RES     
     675 H          227.7476    50.9082    47.7388 H             1 RES     
     676 H          229.8198    47.5434    47.3642 H             1 RES     
     677 H          223.3636    46.0366    49.8384 H             1 RES     
     678 O          214.2617    48.8670    52.5734 O             1 RES     
     679 C          213.0797    50.7526    53.4076 C             1 RES     
     680 C          210.2294    50.5885    54.0706 C             1 RES     
     681 H          213.4791    51.4403    54.6432 H             1 RES     
     682 H          212.3278    50.9280    52.0479 H             1 RES     
     683 C          237.7638    47.8155    49.8141 C             1 RES     
     684 O          207.9626    52.2356    52.4723 O             1 RES     
     685 H          241.3725    48.2267    49.3443 H             1 RES     
     686 H          241.0628    48.7460    50.8729 H             1 RES     
     687 H          241.7235    37.7494    55.4368 H             1 RES     
     688 C          234.0546    43.8249    49.0358 C             1 RES     
     689 C          236.4268    41.8376    49.4353 C             1 RES     
     690 H          233.4242    45.0117    49.4988 H             1 RES     
     691 O          234.0327    44.0409    47.3237 O             1 RES     
     692 H          233.8133    44.3429    46.2029 H             1 RES     
     693 N          237.9585    42.5431    48.7550 N             1 RES     
     694 H          236.2647    41.7016    50.6083 H             1 RES     
     695 H          236.3033    40.5661    48.0503 H             1 RES     
     696 C          240.5822    42.2222    52.5579 C             1 RES     
     697 H          238.1402    43.7929    48.4661 H             1 RES     
     698 C          240.9839    44.4073    51.6742 C             1 RES     
     699 H          242.2135    37.0113    53.5704 H             1 RES     
     700 C          242.6004    40.3513    53.5624 C             1 RES     
     701 C          243.6399    45.7361    51.5263 C             1 RES     
     702 H          249.8975    48.2447    50.8732 H             1 RES     
     703 C          240.7617    47.9814    50.1878 C             1 RES     
     704 C          245.2973    43.9985    52.4786 C             1 RES     
     705 H          237.3935    48.7614    49.4777 H             1 RES     
     706 H          243.3456    37.3966    54.8915 H             1 RES     
     707 C          244.9747    41.1966    53.5721 C             1 RES     
     708 C          247.9105    44.5189    51.3824 C             1 RES     
     709 C          205.7150    53.1898    52.4561 C             1 RES     
     710 H          237.5360    47.0643    49.0871 H             1 RES     
     711 C          242.3794    37.7447    54.5914 C             1 RES     
     712 N          248.3057    38.4077    50.5994 N             1 RES     
     713 H          237.3018    47.5624    50.7455 H             1 RES     
     714 H          209.5257    50.6621    52.9557 H             1 RES     
     715 H          243.8604    46.7169    51.1598 H             1 RES     
     716 C          250.2978    47.7080    51.7079 C             1 RES     
     717 H          248.2936    43.5986    50.6238 H             1 RES     
     718 H          248.3787    44.6670    51.4959 H             1 RES     
     719 H          250.3695    48.3624    52.5515 H             1 RES     
     720 H          251.2706    47.3374    51.4603 H             1 RES     
     721 H          210.1887    49.0172    53.1684 H             1 RES     
     722 H          248.4196    38.8104    49.4286 H             1 RES     
     723 H          206.1928    53.2620    54.0090 H             1 RES     
     724 H          206.0793    53.3478    51.0119 H             1 RES     
     725 H          237.8018    40.8429    49.1200 H             1 RES     
     726 H          248.0501    37.0960    50.9186 H             1 RES     
     727 H           10.0000    86.5181    41.1579 H             1 RES     
     728 H          249.3339    38.0798    50.4203 H             1 RES     
     729 C           22.1685    87.3015    72.0099 C             1 RES     
     730 C           24.0175    88.8916    71.9257 C             1 RES     
     731 C           28.6829    89.1665    71.9258 C             1 RES     
     732 C           23.7662    83.9095    71.9258 C             1 RES     
     733 C           22.2287    85.2696    71.9258 C             1 RES     
     734 C           25.9542    87.5906    71.9257 C             1 RES     
     735 H           24.0727    89.9601    71.9257 H             1 RES     
     736 H           21.1975    88.4193    71.9258 H             1 RES     
     737 C           25.8802    85.3878    71.9257 C             1 RES     
     738 H           23.7053    82.8412    71.9258 H             1 RES     
     739 O           39.9680    83.8959    73.6693 O             1 RES     
     740 H           26.8208    84.8776    71.9257 H             1 RES     
     741 C           31.3027    87.9780    71.9871 C             1 RES     
     742 H           28.6871    89.7842    71.0522 H             1 RES     
     743 H           28.6863    89.6693    72.8703 H             1 RES     
     744 C           33.3332    89.5336    71.9258 C             1 RES     
     745 C           35.5260    85.1560    72.8325 C             1 RES     
     746 C           31.1549    84.9567    71.9258 C             1 RES     
     747 C           35.4804    88.3118    71.8839 C             1 RES     
     748 C           33.2406    83.9451    71.8072 C             1 RES     
     749 H           33.4419    82.7110    71.6638 H             1 RES     
     750 H           33.3618    90.6032    71.9258 H             1 RES     
     751 H           36.3227    87.9971    71.4817 H             1 RES     
     752 H           30.1889    84.4964    71.9258 H             1 RES     
     753 O           20.3061    84.4145    72.7378 O             1 RES     
     754 C           18.5046    85.7194    73.5747 C             1 RES     
     755 C           15.7411    84.7501    73.4540 C             1 RES     
     756 H           18.4449    86.1609    74.9749 H             1 RES     
     757 H           18.0163    86.0407    72.1244 H             1 RES     
     758 C           43.2311    89.4854    75.8682 C             1 RES     
     759 O           13.4650    86.1688    71.6616 O             1 RES     
     760 H           46.6004    90.8151    76.4092 H             1 RES     
     761 H           45.8637    90.8642    77.8779 H             1 RES     
     762 H           48.6579    79.5453    80.3809 H             1 RES     
     763 C           41.0125    85.0595    73.4645 C             1 RES     
     764 C           43.7184    83.6339    74.0824 C             1 RES     
     765 H           39.9975    85.9218    73.9609 H             1 RES     
     766 O           41.2683    85.6718    71.8713 O             1 RES     
     767 H           41.1981    86.1770    70.8058 H             1 RES     
     768 N           45.0948    84.8151    73.9517 N             1 RES     
     769 H           43.3733    83.1850    75.1313 H             1 RES     
     770 H           44.2298    82.7414    72.5038 H             1 RES     
     771 C           46.9024    84.1959    78.1705 C             1 RES     
     772 H           44.9733    86.1049    73.9505 H             1 RES     
     773 C           46.8435    86.5618    77.8299 C             1 RES     
     774 H           49.6916    79.4128    78.5970 H             1 RES     
     775 C           49.1241    82.6526    79.2950 C             1 RES     
     776 C           48.9978    88.4601    78.6029 C             1 RES     
     777 H           54.3070    92.4197    80.0213 H             1 RES     
     778 C           45.9289    90.2397    77.0116 C             1 RES     
     779 C           50.8535    86.9723    79.6108 C             1 RES     
     780 H           42.6851    90.3734    75.6270 H             1 RES     
     781 H           50.3882    79.7168    80.2088 H             1 RES     
     782 C           51.1177    83.9923    80.0584 C             1 RES     
     783 C           53.3798    88.3277    79.3247 C             1 RES     
     784 C           11.0893    86.5564    71.2515 C             1 RES     
     785 H           43.3698    88.9005    74.9831 H             1 RES     
     786 C           49.4419    79.8957    79.7426 C             1 RES     
     787 N           55.6118    82.8459    77.5687 N             1 RES     
     788 H           42.6844    88.9156    76.5903 H             1 RES     
     789 H           15.2785    84.9274    72.2300 H             1 RES     
     790 H           49.0032    89.5240    78.4888 H             1 RES     
     791 C           54.6689    91.8039    80.8180 C             1 RES     
     792 H           54.1460    87.7313    78.5333 H             1 RES     
     793 H           53.7561    88.5474    79.5779 H             1 RES     
     794 H           54.3877    92.2335    81.7568 H             1 RES     
     795 H           55.7354    91.7376    80.7613 H             1 RES     
     796 H           16.3191    83.4773    72.3005 H             1 RES     
     797 H           55.8366    83.5346    76.5582 H             1 RES     
     798 H           11.2128    86.3589    72.8610 H             1 RES     
     799 H           11.6716    87.1380    70.0000 H             1 RES     
     800 H           55.6751    81.4734    77.5687 H             1 RES     
     801 C           71.2846    82.7630    77.7885 C             1 RES     
     802 C           73.2229    84.2192    77.5117 C             1 RES     
     803 C           77.8881    84.1810    77.2354 C             1 RES     
     804 C           72.6550    79.2720    77.8062 C             1 RES     
     805 C           71.2101    80.7300    77.8157 C             1 RES     
     806 C           75.0693    82.7934    77.4766 C             1 RES     
     807 H           73.3461    85.2801    77.4485 H             1 RES     
     808 H           70.3836    83.9373    77.6961 H             1 RES     
     809 C           74.8552    80.6035    77.6047 C             1 RES     
     810 H           72.5262    78.2116    77.8697 H             1 RES     
     811 O           88.8980    78.2661    78.6388 O             1 RES     
     812 H           75.7597    80.0322    77.5808 H             1 RES     
     813 C           80.4258    82.8248    77.2168 C             1 RES     
     814 H           77.8797    84.7504    76.3296 H             1 RES     
     815 H           77.9797    84.7314    78.1484 H             1 RES     
     816 C           82.5441    84.2357    76.9546 C             1 RES     
     817 C           84.5034    79.7749    77.9822 C             1 RES     
     818 C           80.0823    79.8211    77.3340 C             1 RES     
     819 C           84.6027    82.8725    76.8615 C             1 RES     
     820 C           82.0885    78.6674    77.1560 C             1 RES     
     821 H           82.2019    77.4168    77.0713 H             1 RES     
     822 H           82.6408    85.2995    76.8929 H             1 RES     
     823 H           85.3978    82.4815    76.4312 H             1 RES     
     824 H           79.0907    79.4271    77.4139 H             1 RES     
     825 O           69.2886    80.0492    78.7808 O             1 RES     
     826 C           67.6269    81.5138    79.6424 C             1 RES     
     827 C           64.8050    80.7266    79.7311 C             1 RES     
     828 H           67.6789    82.0312    81.0166 H             1 RES     
     829 H           67.0747    81.7905    78.2059 H             1 RES     
     830 C           92.6358    83.7325    80.3337 C             1 RES     
     831 O           62.5214    82.1983    77.9919 O             1 RES     
     832 H           96.1092    84.8604    80.6097 H             1 RES     
     833 H           95.4658    85.0357    82.1123 H             1 RES     
     834 H           97.6767    73.7022    85.0880 H             1 RES     
     835 C           90.0005    79.3449    78.3107 C             1 RES     
     836 C           92.6420    77.7759    78.8555 C             1 RES     
     837 H           89.0738    80.2980    78.8138 H             1 RES     
     838 O           90.1995    79.8542    76.6738 O             1 RES     
     839 H           90.0984    80.3064    75.5871 H             1 RES     
     840 N           94.0806    78.8539    78.5818 N             1 RES     
     841 H           92.3320    77.4067    79.9457 H             1 RES     
     842 H           93.0006    76.7695    77.3035 H             1 RES     
     843 C           96.0929    78.3374    82.7210 C             1 RES     
     844 H           94.0417    80.1471    78.5148 H             1 RES     
     845 C           96.1647    80.6808    82.2517 C             1 RES     
     846 H           98.5919    73.4074    83.2593 H             1 RES     
     847 C           98.2746    76.7101    83.8046 C             1 RES     
     848 C           98.4778    82.4687    82.7949 C             1 RES     
     849 H          104.1036    86.1333    83.6891 H             1 RES     
     850 C           95.4394    84.3636    81.2802 C             1 RES     
     851 C          100.2916    80.9151    83.7796 C             1 RES     
     852 H           92.1341    84.6412    80.0738 H             1 RES     
     853 H           99.4011    73.7483    84.8100 H             1 RES     
     854 C          100.3914    77.9517    84.3787 C             1 RES     
     855 C          102.8777    82.0815    83.2768 C             1 RES     
     856 C           60.1550    82.7219    77.6941 C             1 RES     
     857 H           92.6840    83.0940    79.4766 H             1 RES     
     858 C           98.4421    73.9654    84.3881 C             1 RES     
     859 N          104.6472    76.3781    81.7100 N             1 RES     
     860 H           92.0978    83.2392    81.1162 H             1 RES     
     861 H           64.2826    80.8699    78.5269 H             1 RES     
     862 H           98.5443    83.5224    82.6210 H             1 RES     
     863 C          104.4723    85.5373    84.4977 C             1 RES     
     864 H          103.5558    81.3945    82.4786 H             1 RES     
     865 H          103.2816    82.2886    83.4958 H             1 RES     
     866 H          104.2754    86.0334    85.4251 H             1 RES     
     867 H          105.5271    85.3969    84.3853 H             1 RES     
     868 H           65.2310    79.3592    78.6206 H             1 RES     
     869 H          104.8550    76.9962    80.6513 H             1 RES     
     870 H           60.3612    82.6013    79.3028 H             1 RES     
     871 H           60.6977    83.1968    76.3813 H             1 RES     
     872 H          104.6228    75.0063    81.7837 H             1 RES     
     873 C          120.2681    75.2586    81.0572 C             1 RES     
     874 C          122.2754    76.5654    80.5909 C             1 RES     
     875 C          126.9040    76.2008    80.0566 C             1 RES     
     876 C          121.4118    71.6895    81.1945 C             1 RES     
     877 C          120.0659    73.2394    81.2028 C             1 RES     
     878 C          124.0218    75.0193    80.5328 C             1 RES     
     879 H          122.4619    77.6109    80.4613 H             1 RES     
     880 H          119.4399    76.4841    80.9494 H             1 RES     
     881 C          123.6765    72.8584    80.7957 C             1 RES     
     882 H          121.2197    70.6449    81.3247 H             1 RES     
     883 O          137.5783    69.6444    81.1726 O             1 RES     
     884 H          124.5397    72.2275    80.7534 H             1 RES     
     885 C          129.3444    74.6787    79.9725 C             1 RES     
     886 H          126.8780    76.7210    79.1221 H             1 RES     
     887 H          127.0846    76.7909    80.9307 H             1 RES     
     888 C          131.5290    75.9291    79.5133 C             1 RES     
     889 C          133.2576    71.4072    80.6789 C             1 RES     
     890 C          128.8177    71.7150    80.2775 C             1 RES     
     891 C          133.4873    74.4282    79.3820 C             1 RES     
     892 C          130.7322    70.4220    80.0528 C             1 RES     
     893 H          130.7603    69.1638    80.0324 H             1 RES     
     894 H          131.6894    76.9793    79.3864 H             1 RES     
     895 H          134.2289    73.9628    78.9305 H             1 RES     
     896 H          127.8095    71.3930    80.4348 H             1 RES     
     897 O          118.1657    72.7403    82.3106 O             1 RES     
     898 C          116.6550    74.3560    83.1800 C             1 RES     
     899 C          113.7989    73.7650    83.4706 C             1 RES     
     900 H          116.8215    74.9401    84.5179 H             1 RES     
     901 H          116.0371    74.5932    81.7634 H             1 RES     
     902 C          141.7512    74.9299    82.3456 C             1 RES     
     903 O          111.5143    75.2929    81.7818 O             1 RES     
     904 H          145.2997    75.8359    82.3630 H             1 RES     
     905 H          144.7593    76.1325    83.8869 H             1 RES     
     906 H          146.4164    64.8483    87.3672 H             1 RES     
     907 C          138.7259    70.6283    80.7232 C             1 RES     
     908 C          141.2897    68.9169    81.2069 C             1 RES     
     909 H          137.8935    71.6664    81.2229 H             1 RES     
     910 O          138.8593    71.0366    79.0516 O             1 RES     
     911 H          138.7227    71.4368    77.9486 H             1 RES     
     912 N          142.7753    69.8804    80.7929 N             1 RES     
     913 H          141.0222    68.6270    82.3317 H             1 RES     
     914 H          141.4905    67.8087    79.6963 H             1 RES     
     915 C          144.9932    69.4484    84.8356 C             1 RES     
     916 H          142.8150    71.1680    80.6555 H             1 RES     
     917 C          145.1863    71.7539    84.2318 C             1 RES     
     918 H          147.2005    64.3974    85.5098 H             1 RES     
     919 C          147.1274    67.7380    85.8852 C             1 RES     
     920 C          147.6369    73.4091    84.5434 C             1 RES     
     921 H          153.5280    76.7310    84.9139 H             1 RES     
     922 C          144.6407    75.4209    83.0967 C             1 RES     
     923 C          149.4032    71.7914    85.5109 C             1 RES     
     924 H          141.2939    75.8552    82.0634 H             1 RES     
     925 H          148.1206    64.7643    86.9911 H             1 RES     
     926 C          149.3495    68.8635    86.2692 C             1 RES     
     927 C          152.0239    72.7543    84.7994 C             1 RES     
     928 C          109.1727    75.9572    81.5879 C             1 RES     
     929 H          141.7075    74.2455    81.5243 H             1 RES     
     930 C          147.1540    65.0226    86.6120 C             1 RES     
     931 N          153.3299    66.8709    83.4595 N             1 RES     
     932 H          141.2304    74.5155    83.1834 H             1 RES     
     933 H          113.2161    73.8796    82.2913 H             1 RES     
     934 H          147.7598    74.4454    84.3070 H             1 RES     
     935 C          153.9054    76.1550    85.7328 C             1 RES     
     936 H          152.6082    71.9825    84.0045 H             1 RES     
     937 H          152.4525    72.9451    84.9835 H             1 RES     
     938 H          153.7961    76.7111    86.6404 H             1 RES     
     939 H          154.9406    75.9386    85.5696 H             1 RES     
     940 H          114.0701    72.3157    82.4167 H             1 RES     
     941 H          153.5133    67.4174    82.3577 H             1 RES     
     942 H          109.4661    75.9077    83.1867 H             1 RES     
     943 H          109.6655    76.3252    80.2221 H             1 RES     
     944 H          142.8133    68.1431    80.9631 H             1 RES     
     945 H          153.2225    65.5096    83.6115 H             1 RES     
     946 C          168.7811    64.6763    81.9980 C             1 RES     
     947 C          170.8364    65.8195    81.3474 C             1 RES     
     948 C          175.3922    65.1186    80.5764 C             1 RES     
     949 C          169.7011    61.0508    82.2718 C             1 RES     
     950 C          168.4596    62.6855    82.2681 C             1 RES     
     951 C          172.4741    64.1592    81.2788 C             1 RES     
     952 H          171.0811    66.8420    81.1489 H             1 RES     
     953 H          168.0278    65.9470    81.8679 H             1 RES     
     954 C          172.0080    62.0431    81.6817 C             1 RES     
     955 H          169.4509    60.0297    82.4711 H             1 RES     
     956 O          185.6744    57.9305    81.4608 O             1 RES     
     957 H          172.8251    61.3544    81.6268 H             1 RES     
     958 C          177.7214    63.4344    80.4417 C             1 RES     
     959 H          175.3439    65.5897    79.6170 H             1 RES     
     960 H          175.6618    65.7404    81.4044 H             1 RES     
     961 C          179.9500    64.5100    79.7914 C             1 RES     
     962 C          181.4531    59.9501    81.1111 C             1 RES     
     963 C          177.0259    60.5327    80.9420 C             1 RES     
     964 C          181.7974    62.8766    79.6355 C             1 RES     
     965 C          178.8373    59.1044    80.6837 C             1 RES     
     966 H          178.7839    57.8479    80.7325 H             1 RES     
     967 H          180.1692    65.5390    79.5969 H             1 RES     
     968 H          182.4796    62.3396    79.1701 H             1 RES     
     969 H          176.0103    60.2875    81.1733 H             1 RES     
     970 O          166.6008    62.3735    83.5068 O             1 RES     
     971 C          165.2506    64.1300    84.3670 C             1 RES     
     972 C          162.3849    63.7475    84.8497 C             1 RES     
     973 H          165.5333    64.7711    85.6585 H             1 RES     
     974 H          164.5658    64.3333    82.9760 H             1 RES     
     975 C          190.2381    62.9793    82.0992 C             1 RES     
     976 O          160.1060    65.3340    83.2080 O             1 RES     
     977 H          193.8318    63.6455    81.8671 H             1 RES     
     978 H          193.4031    64.0571    83.3998 H             1 RES     
     979 H          194.5416    52.8857    87.4114 H             1 RES     
     980 C          186.8535    58.8105    80.8932 C             1 RES     
     981 C          189.3273    56.9591    81.3283 C             1 RES     
     982 H          186.1202    59.9267    81.3795 H             1 RES     
     983 O          186.9130    59.1206    79.1965 O             1 RES     
     984 H          186.7369    59.4706    78.0821 H             1 RES     
     985 N          190.8440    57.7980    80.7783 N             1 RES     
     986 H          189.1092    56.7473    82.4808 H             1 RES     
     987 H          189.3668    55.7623    79.8736 H             1 RES     
     988 C          193.2665    57.4315    84.7085 C             1 RES     
     989 H          190.9575    59.0711    80.5667 H             1 RES     
     990 C          193.5698    59.6840    83.9661 C             1 RES     
     991 H          195.1834    52.2865    85.5413 H             1 RES     
     992 C          195.3459    55.6395    85.7317 C             1 RES     
     993 C          196.1351    61.1856    84.0465 C             1 RES     
     994 H          202.2377    64.1208    83.8994 H             1 RES     
     995 C          193.1925    63.3146    82.6588 C             1 RES     
     996 C          197.8492    59.5064    85.0032 C             1 RES     
     997 H          189.8247    63.9170    81.7915 H             1 RES     
     998 H          196.2116    52.6683    86.9458 H             1 RES     
     999 C          197.6541    56.6325    85.9269 C             1 RES     
    1000 C          200.4790    60.2532    84.0932 C             1 RES     
    1001 C          157.8041    66.1424    83.1083 C             1 RES     
    1002 H          190.1021    62.2572    81.3215 H             1 RES     
    1003 C          195.2425    52.9704    86.6075 C             1 RES     
    1004 N          201.3252    54.2334    83.0154 N             1 RES     
    1005 H          189.7427    62.6452    82.9869 H             1 RES     
    1006 H          161.7414    63.8387    83.7003 H             1 RES     
    1007 H          196.3096    62.1975    83.7457 H             1 RES     
    1008 C          202.6256    63.5646    84.7271 C             1 RES     
    1009 H          200.9645    59.4033    83.3115 H             1 RES     
    1010 H          200.9291    60.4242    84.2420 H             1 RES     
    1011 H          202.6061    64.1738    85.6066 H             1 RES     
    1012 H          203.6333    63.2713    84.5187 H             1 RES     
    1013 H          162.5000    62.2300    83.8655 H             1 RES     
    1014 H          201.4772    54.7077    81.8762 H             1 RES     
    1015 H          158.1883    66.1574    84.6884 H             1 RES     
    1016 H          158.2372    66.4044    81.6986 H             1 RES     
    1017 H          190.7812    56.0734    81.0436 H             1 RES     
    1018 H          201.1405    52.8922    83.2496 H             1 RES     
    1019 C          216.4908    50.9364    80.8179 C             1 RES     
    1020 C          218.5723    51.9039    79.9900 C             1 RES     
    1021 C          223.0203    50.8602    79.0061 C             1 RES     
    1022 C          217.1924    47.2768    81.2433 C             1 RES     
    1023 C          216.0596    48.9885    81.2171 C             1 RES     
    1024 C          220.0939    50.1364    79.9235 C             1 RES     
    1025 H          218.8695    52.8959    79.7209 H             1 RES     
    1026 H          215.8135    52.2461    80.6588 H             1 RES     
    1027 C          219.5186    48.0802    80.4703 C             1 RES     
    1028 H          216.8899    46.2866    81.5135 H             1 RES     
    1029 O          232.8576    43.0568    79.7170 O             1 RES     
    1030 H          220.2855    47.3366    80.4086 H             1 RES     
    1031 C          225.2252    49.0192    78.8363 C             1 RES     
    1032 H          222.9451    51.2825    78.0259 H             1 RES     
    1033 H          223.3778    51.5052    79.7815 H             1 RES     
    1034 C          227.4752    49.9077    78.0029 C             1 RES     
    1035 C          228.7604    45.3330    79.4910 C             1 RES     
    1036 C          224.3771    46.2008    79.5372 C             1 RES     
    1037 C          229.2022    48.1485    77.8360 C             1 RES     
    1038 C          226.0752    44.6430    79.2588 C             1 RES     
    1039 H          225.9448    43.3972    79.3811 H             1 RES     
    1040 H          227.7476    50.9082    77.7388 H             1 RES     
    1041 H          229.8198    47.5434    77.3642 H             1 RES     
    1042 H          223.3636    46.0366    79.8384 H             1 RES     
    1043 O          214.2617    48.8670    82.5734 O             1 RES     
    1044 C          213.0797    50.7526    83.4076 C             1 RES     
    1045 C          210.2294    50.5885    84.0706 C             1 RES     
    1046 H          213.4791    51.4403    84.6432 H             1 RES     
    1047 H          212.3278    50.9280    82.0479 H             1 RES     
    1048 C          237.7638    47.8155    79.8141 C             1 RES     
    1049 O          207.9626    52.2356    82.4723 O             1 RES     
    1050 H          241.3725    48.2267    79.3443 H             1 RES     
    1051 H          241.0628    48.7460    80.8729 H             1 RES     
    1052 H          241.7235    37.7494    85.4368 H             1 RES     
    1053 C          234.0546    43.8249    79.0358 C             1 RES     
    1054 C          236.4268    41.8376    79.4353 C             1 RES     
    1055 H          233.4242    45.0117    79.4988 H             1 RES     
    1056 O          234.0327    44.0409    77.3237 O             1 RES     
    1057 H          233.8133    44.3429    76.2029 H             1 RES     
    1058 N          237.9585    42.5431    78.7550 N             1 RES     
    1059 H          236.2647    41.7016    80.6083 H             1 RES     
    1060 H          236.3033    40.5661    78.0503 H             1 RES     
    1061 C          240.5822    42.2222    82.5579 C             1 RES     
    1062 H          238.1402    43.7929    78.4661 H             1 RES     
    1063 C          240.9839    44.4073    81.6742 C             1 RES     
    1064 H          242.2135    37.0113    83.5704 H             1 RES     
    1065 C          242.6004    40.3513    83.5624 C             1 RES     
    1066 C          243.6399    45.7361    81.5263 C             1 RES     
    1067 H          249.8975    48.2447    80.8732 H             1 RES     
    1068 C          240.7617    47.9814    80.1878 C             1 RES     
    1069 C          245.2973    43.9985    82.4786 C             1 RES     
    1070 H          237.3935    48.7614    79.4777 H             1 RES     
    1071 H          243.3456    37.3966    84.8915 H             1 RES     
    1072 C          244.9747    41.1966    83.5721 C             1 RES     
    1073 C          247.9105    44.5189    81.3824 C             1 RES     
    1074 C          205.7150    53.1898    82.4561 C             1 RES     
    1075 H          237.5360    47.0643    79.0871 H             1 RES     
    1076 C          242.3794    37.7447    84.5914 C             1 RES     
    1077 N          248.3057    38.4077    80.5994 N             1 RES     
    1078 H          237.3018    47.5624    80.7455 H             1 RES     
    1079 H          209.5257    50.6621    82.9557 H             1 RES     
    1080 H          243.8604    46.7169    81.1598 H             1 RES     
    1081 C          250.2978    47.7080    81.7079 C             1 RES     
    1082 H          248.2936    43.5986    80.6238 H             1 RES     
    1083 H          248.3787    44.6670    81.4959 H             1 RES     
    1084 H          250.3695    48.3624    82.5515 H             1 RES     
    1085 H          251.2706    47.3374    81.4603 H             1 RES     
    1086 H          210.1887    49.0172    83.1684 H             1 RES     
    1087 H          248.4196    38.8104    79.4286 H             1 RES     
    1088 H          206.1928    53.2620    84.0090 H             1 RES     
    1089 H          206.0793    53.3478    81.0119 H             1 RES     
    1090 H          237.8018    40.8429    79.1200 H             1 RES     
    1091 H          248.0501    37.0960    80.9186 H             1 RES     
    1092 H           10.0000    86.5181    71.1579 H             1 RES     
    1093 H          249.3339    38.0798    80.4203 H             1 RES     
    1094 C           51.2908    87.9555    36.6816 C             1 RES     
    1095 C           50.8218    86.3096    34.9422 C             1 RES     
    1096 C           52.8900    83.4970    31.8352 C             1 RES     
    1097 C           55.0268    88.0313    37.0009 C             1 RES     
    1098 C           53.0847    88.4997    37.4724 C             1 RES     
    1099 C           52.9100    85.5893    34.1913 C             1 RES     
    1100 H           49.9206    85.9396    34.4999 H             1 RES     
    1101 H           49.8377    88.1066    36.9367 H             1 RES     
    1102 C           54.7876    86.3289    35.0777 C             1 RES     
    1103 H           55.9250    88.4046    37.4468 H             1 RES     
    1104 O           62.6239    81.3652    26.0914 O             1 RES     
    1105 H           55.6961    85.9406    34.6666 H             1 RES     
    1106 C           55.2194    82.3879    30.5611 C             1 RES     
    1107 H           52.3387    82.6463    32.1774 H             1 RES     
    1108 H           52.4727    84.0421    31.0144 H             1 RES     
    1109 C           54.8706    80.6641    28.7029 C             1 RES     
    1110 C           59.7762    81.4444    28.3565 C             1 RES     
    1111 C           57.7706    83.3835    31.8474 C             1 RES     
    1112 C           56.9933    79.7644    27.8141 C             1 RES     
    1113 C           59.6787    82.3960    30.9691 C             1 RES     
    1114 H           60.8479    82.5613    31.4047 H             1 RES     
    1115 H           53.9553    80.3093    28.2772 H             1 RES     
    1116 H           57.6756    79.0712    27.6590 H             1 RES     
    1117 H           57.6929    84.0933    32.6443 H             1 RES     
    1118 O           52.9240    90.5229    39.7455 O             1 RES     
    1119 C           51.1318    91.1615    40.4129 C             1 RES     
    1120 H           52.0821    93.2490    42.2660 H             1 RES     
    1121 H           48.6858    89.2651    40.3947 H             1 RES     
    1122 C           62.0530    80.3736    24.1571 C             1 RES     
    1123 H           59.5064    79.6587    24.2600 H             1 RES     
    1124 H           64.6070    79.3594    22.2317 H             1 RES     
    1125 O           60.1380    79.5337    23.5615 O             1 RES     
    1126 H           50.7485    91.7764    39.6255 H             1 RES     
    1127 C           51.4465    92.4093    42.4553 C             1 RES     
    1128 H           51.8984    91.7789    43.1924 H             1 RES     
    1129 O           48.8161    90.0202    39.8331 O             1 RES     
    1130 C           64.4325    80.3484    22.6005 C             1 RES     
    1131 H           61.0249    80.1478    23.9650 H             1 RES     
    1132 H           65.2591    80.6537    23.2075 H             1 RES     
    1133 C          139.3637    70.7748    40.8168 C             1 RES     
    1134 C          139.0158    68.5820    39.8046 C             1 RES     
    1135 C          140.7792    65.6299    36.6396 C             1 RES     
    1136 C          142.5810    72.0433    39.3657 C             1 RES     
    1137 C          140.9308    72.0518    40.5866 C             1 RES     
    1138 C          140.7906    68.2973    38.3172 C             1 RES     
    1139 H          138.2517    67.8388    39.8978 H             1 RES     
    1140 H          138.1753    70.5699    41.6800 H             1 RES     
    1141 C          142.3826    69.8056    38.0977 C             1 RES     
    1142 H          143.3425    72.7897    39.2764 H             1 RES     
    1143 O          147.7433    64.6517    27.5385 O             1 RES     
    1144 H          143.1549    69.5865    37.3903 H             1 RES     
    1145 C          142.7266    64.8927    34.6537 C             1 RES     
    1146 H          140.7876    64.8206    37.3393 H             1 RES     
    1147 H          139.9109    65.7220    36.0212 H             1 RES     
    1148 C          142.4685    62.6255    33.4964 C             1 RES     
    1149 C          146.1390    64.6453    30.8054 C             1 RES     
    1150 C          144.9231    66.9613    34.4284 C             1 RES     
    1151 C          144.2958    62.1442    31.9044 C             1 RES     
    1152 C          146.6101    66.3420    32.9595 C             1 RES     
    1153 H          147.6801    66.9779    32.7730 H             1 RES     
    1154 H          141.6924    61.8974    33.6079 H             1 RES     
    1155 H          145.0953    61.6710    31.5770 H             1 RES     
    1156 H          144.8552    67.8407    35.0342 H             1 RES     
    1157 O          140.7889    74.5766    42.2870 O             1 RES     
    1158 C          139.2656    74.8469    43.5799 C             1 RES     
    1159 H          139.8777    77.6143    44.3930 H             1 RES     
    1160 H          137.9823    72.4256    45.0186 H             1 RES     
    1161 C          146.9724    62.9500    26.2891 C             1 RES     
    1162 H          145.1658    61.5982    27.6731 H             1 RES     
    1163 H          148.8347    62.1461    23.6162 H             1 RES     
    1164 O          145.4948    61.4379    26.7964 O             1 RES     
    1165 H          138.4093    75.0226    42.9628 H             1 RES     
    1166 C          139.7559    76.7392    44.9964 C             1 RES     
    1167 H          140.6580    76.5529    45.5408 H             1 RES     
    1168 O          137.5807    72.9526    44.3378 O             1 RES     
    1169 C          148.4173    63.1043    23.8449 C             1 RES     
    1170 H          146.1332    62.3825    26.6334 H             1 RES     
    1171 H          149.2045    63.8227    23.9406 H             1 RES     
    1172 C           46.2372    83.9136    52.9908 C             1 RES     
    1173 C           44.3089    85.2306    53.6989 C             1 RES     
    1174 C           42.6413    87.7559    57.2603 C             1 RES     
    1175 C           48.7540    84.2688    55.7485 C             1 RES     
    1176 C           48.0316    83.6777    53.9203 C             1 RES     
    1177 C           44.8574    86.0437    55.8158 C             1 RES     
    1178 H           43.3552    85.4375    53.2604 H             1 RES     
    1179 H           45.5853    83.6532    51.6844 H             1 RES     
    1180 C           46.8114    85.6382    56.7514 C             1 RES     
    1181 H           49.7093    84.0589    56.1825 H             1 RES     
    1182 O           43.6734    90.0122    68.4910 O             1 RES     
    1183 H           46.9712    86.0533    57.7246 H             1 RES     
    1184 C           42.8595    88.8999    59.8915 C             1 RES     
    1185 H           42.4226    88.5864    56.6222 H             1 RES     
    1186 H           41.8489    87.0568    57.4282 H             1 RES     
    1187 C           40.8975    90.2886    60.7681 C             1 RES     
    1188 C           43.7287    89.9733    64.8520 C             1 RES     
    1189 C           45.5765    88.3700    61.1126 C             1 RES     
    1190 C           41.3277    91.2615    62.9982 C             1 RES     
    1191 C           45.8697    89.4089    63.1674 C             1 RES     
    1192 H           46.9434    89.4299    63.8238 H             1 RES     
    1193 H           39.9509    90.4816    60.3080 H             1 RES     
    1194 H           41.4954    91.9910    63.6385 H             1 RES     
    1195 H           46.2755    87.7801    60.5572 H             1 RES     
    1196 O           50.0618    82.0028    52.3843 O             1 RES     
    1197 C           49.6125    81.2882    50.5533 C             1 RES     
    1198 H           51.9984    79.6027    50.1523 H             1 RES     
    1199 H           47.7837    82.9006    48.6467 H             1 RES     
    1200 C           41.6488    90.6465    69.2323 C             1 RES     
    1201 H           40.0640    91.1038    67.1620 H             1 RES     
    1202 H           41.5134    91.6249    72.4391 H             1 RES     
    1203 O           39.8802    91.1895    68.0901 O             1 RES     
    1204 H           48.8790    80.5288    50.7271 H             1 RES     
    1205 C           51.6121    80.3913    49.5410 C             1 RES     
    1206 H           52.3452    81.1657    49.4525 H             1 RES     
    1207 O           47.5606    82.0890    49.0871 O             1 RES     
    1208 C           41.8711    90.6878    72.0668 C             1 RES     
    1209 H           40.8386    90.7352    68.5390 H             1 RES     
    1210 H           42.8962    90.5609    72.3461 H             1 RES     
    1211 C          100.0129    73.9645    64.8922 C             1 RES     
    1212 C           98.4923    73.5443    63.0305 C             1 RES     
    1213 C           94.4927    74.9997    61.1002 C             1 RES     
    1214 C           98.6361    76.9825    66.6420 C             1 RES     
    1215 C           99.9751    75.4758    66.2538 C             1 RES     
    1216 C           96.8116    75.1503    63.2284 C             1 RES     
    1217 H           98.4603    72.8073    62.2555 H             1 RES     
    1218 H          100.9054    72.8811    64.4136 H             1 RES     
    1219 C           96.8434    76.6837    64.8113 C             1 RES     
    1220 H           98.6729    77.7173    67.4190 H             1 RES     
    1221 O           84.8060    80.9425    62.8715 O             1 RES     
    1222 H           96.0288    77.3776    64.8215 H             1 RES     
    1223 C           92.1960    76.7303    61.0014 C             1 RES     
    1224 H           94.9463    75.0979    60.1362 H             1 RES     
    1225 H           94.0123    74.0676    61.3129 H             1 RES     
    1226 C           90.5074    76.3847    59.1103 C             1 RES     
    1227 C           88.0972    79.7052    61.9315 C             1 RES     
    1228 C           92.3107    78.8545    63.1528 C             1 RES     
    1229 C           88.6687    78.0347    59.1487 C             1 RES     
    1230 C           90.5672    80.3809    63.0194 C             1 RES     
    1231 H           90.4502    81.4135    63.7295 H             1 RES     
    1232 H           90.4983    75.6375    58.3445 H             1 RES     
    1233 H           88.1478    78.8013    58.8151 H             1 RES     
    1234 H           93.1330    78.8387    63.8373 H             1 RES     
    1235 O          102.2932    75.4789    68.2317 O             1 RES     
    1236 C          103.7583    74.1017    68.0826 C             1 RES     
    1237 H          105.2148    74.7534    70.5623 H             1 RES     
    1238 H          104.6201    73.0236    65.3124 H             1 RES     
    1239 C           83.2320    80.0678    61.5267 C             1 RES     
    1240 H           84.3799    78.4459    59.7778 H             1 RES     
    1241 H           80.2676    81.6398    61.5409 H             1 RES     
    1242 O           83.4636    78.6797    59.8693 O             1 RES     
    1243 H          103.3003    73.1803    68.3761 H             1 RES     
    1244 C          105.5717    74.7127    69.5544 C             1 RES     
    1245 H          105.9526    75.6718    69.2719 H             1 RES     
    1246 O          104.1489    72.5414    65.9817 O             1 RES     
    1247 C           80.7849    81.2341    62.3850 C             1 RES     
    1248 H           83.4952    79.2808    60.8513 H             1 RES     
    1249 H           80.9890    82.0152    63.0873 H             1 RES     
@<TRIPOS>BOND
       1        1        2 1
       2        1        5 1
       3        1        8 1
       4        2        6 1
       5        2        7 1
       6        3        6 1
       7        3       13 1
       8        3       14 1
       9        3       15 1
      10        4        5 1
      11        4       10 1
      12        4        9 1
      13        5       25 1
      14        6        9 1
      15        9       12 1
      16       11       17 1
      17       11       35 1
      18       13       16 1
      19       13       18 1
      20       16       19 1
      21       16       22 1
      22       17       19 1
      23       17       20 1
      24       18       24 1
      25       18       20 1
      26       19       23 1
      27       20       21 1
      28       25       26 1
      29       26       27 1
      30       26       28 1
      31       26       29 1
      32       27       31 1
      33       27       61 1
      34       27       68 1
      35       30       50 1
      36       30       52 1
      37       30       57 1
      38       30       60 1
      39       31       56 1
      40       32       50 1
      41       33       50 1
      42       34       58 1
      43       35       36 1
      44       35       37 1
      45       35       38 1
      46       36       40 1
      47       36       41 1
      48       36       42 1
      49       38       39 1
      50       40       43 1
      51       40       44 1
      52       40       72 1
      53       43       45 1
      54       43       47 1
      55       45       48 1
      56       45       50 1
      57       46       58 1
      58       47       54 1
      59       47       58 1
      60       48       51 1
      61       48       62 1
      62       49       63 1
      63       51       54 1
      64       51       55 1
      65       53       58 1
      66       54       59 1
      67       55       63 1
      68       55       64 1
      69       55       65 1
      70       56       70 1
      71       56       71 1
      72       56      364 1
      73       59       69 1
      74       59      128 1
      75       59     1127 1
      76       63       67 1
      77       63       66 1
      78       73       74 1
      79       73       77 1
      80       73       80 1
      81       74       78 1
      82       74       79 1
      83       75       78 1
      84       75       85 1
      85       75       86 1
      86       75       87 1
      87       76       77 1
      88       76       82 1
      89       76       81 1
      90       77       97 1
      91       78       81 1
      92       81       84 1
      93       83       89 1
      94       83      107 1
      95       85       88 1
      96       85       90 1
      97       88       91 1
      98       88       94 1
      99       89       91 1
     100       89       92 1
     101       90       96 1
     102       90       92 1
     103       91       95 1
     104       92       93 1
     105       97       98 1
     106       98       99 1
     107       98      100 1
     108       98      101 1
     109       99      103 1
     110       99      133 1
     111       99      140 1
     112      102      122 1
     113      102      124 1
     114      102      129 1
     115      102      132 1
     116      103      128 1
     117      104      122 1
     118      105      122 1
     119      106      130 1
     120      107      108 1
     121      107      109 1
     122      107      110 1
     123      108      112 1
     124      108      113 1
     125      108      114 1
     126      110      111 1
     127      112      115 1
     128      112      116 1
     129      112      144 1
     130      115      117 1
     131      115      119 1
     132      117      120 1
     133      117      122 1
     134      118      130 1
     135      119      126 1
     136      119      130 1
     137      120      123 1
     138      120      134 1
     139      121      135 1
     140      123      126 1
     141      123      127 1
     142      125      130 1
     143      126      131 1
     144      127      135 1
     145      127      136 1
     146      127      137 1
     147      128      142 1
     148      128      143 1
     149      131      141 1
     150      131      145 1
     151      131      201 1
     152      135      139 1
     153      135      138 1
     154      146      147 1
     155      146      150 1
     156      146      153 1
     157      147      151 1
     158      147      152 1
     159      148      151 1
     160      148      158 1
     161      148      159 1
     162      148      160 1
     163      149      150 1
     164      149      155 1
     165      149      154 1
     166      150      170 1
     167      151      154 1
     168      154      157 1
     169      156      162 1
     170      156      180 1
     171      158      161 1
     172      158      163 1
     173      161      164 1
     174      161      167 1
     175      162      164 1
     176      162      165 1
     177      163      169 1
     178      163      165 1
     179      164      168 1
     180      165      166 1
     181      170      171 1
     182      171      172 1
     183      171      173 1
     184      171      174 1
     185      172      176 1
     186      172      206 1
     187      172      213 1
     188      175      195 1
     189      175      197 1
     190      175      202 1
     191      175      205 1
     192      176      201 1
     193      177      195 1
     194      178      195 1
     195      179      203 1
     196      180      181 1
     197      180      182 1
     198      180      183 1
     199      181      185 1
     200      181      186 1
     201      181      187 1
     202      183      184 1
     203      185      188 1
     204      185      189 1
     205      185     1166 1
     206      188      190 1
     207      188      192 1
     208      190      193 1
     209      190      195 1
     210      191      203 1
     211      192      199 1
     212      192      203 1
     213      193      196 1
     214      193      207 1
     215      194      208 1
     216      196      199 1
     217      196      200 1
     218      198      203 1
     219      199      204 1
     220      200      208 1
     221      200      209 1
     222      200      210 1
     223      201      215 1
     224      201      216 1
     225      204      214 1
     226      204      217 1
     227      204      273 1
     228      208      212 1
     229      208      211 1
     230      218      219 1
     231      218      222 1
     232      218      225 1
     233      219      223 1
     234      219      224 1
     235      220      223 1
     236      220      230 1
     237      220      231 1
     238      220      232 1
     239      221      222 1
     240      221      227 1
     241      221      226 1
     242      222      242 1
     243      223      226 1
     244      226      229 1
     245      228      234 1
     246      228      252 1
     247      230      233 1
     248      230      235 1
     249      233      236 1
     250      233      239 1
     251      234      236 1
     252      234      237 1
     253      235      241 1
     254      235      237 1
     255      236      240 1
     256      237      238 1
     257      242      243 1
     258      243      244 1
     259      243      245 1
     260      243      246 1
     261      244      248 1
     262      244      278 1
     263      244      285 1
     264      247      267 1
     265      247      269 1
     266      247      274 1
     267      247      277 1
     268      248      273 1
     269      249      267 1
     270      250      267 1
     271      251      275 1
     272      252      253 1
     273      252      254 1
     274      252      255 1
     275      253      257 1
     276      253      258 1
     277      253      259 1
     278      255      256 1
     279      257      260 1
     280      257      261 1
     281      257      289 1
     282      260      262 1
     283      260      264 1
     284      262      265 1
     285      262      267 1
     286      263      275 1
     287      264      271 1
     288      264      275 1
     289      265      268 1
     290      265      279 1
     291      266      280 1
     292      268      271 1
     293      268      272 1
     294      270      275 1
     295      271      276 1
     296      272      280 1
     297      272      281 1
     298      272      282 1
     299      273      287 1
     300      273      288 1
     301      276      286 1
     302      276      290 1
     303      276      346 1
     304      280      284 1
     305      280      283 1
     306      291      292 1
     307      291      295 1
     308      291      298 1
     309      292      296 1
     310      292      297 1
     311      293      296 1
     312      293      303 1
     313      293      304 1
     314      293      305 1
     315      294      295 1
     316      294      300 1
     317      294      299 1
     318      295      315 1
     319      296      299 1
     320      299      302 1
     321      301      307 1
     322      301      325 1
     323      303      306 1
     324      303      308 1
     325      306      309 1
     326      306      312 1
     327      307      309 1
     328      307      310 1
     329      308      314 1
     330      308      310 1
     331      309      313 1
     332      310      311 1
     333      315      316 1
     334      316      317 1
     335      316      318 1
     336      316      319 1
     337      317      321 1
     338      317      351 1
     339      317      358 1
     340      320      340 1
     341      320      342 1
     342      320      347 1
     343      320      350 1
     344      321      346 1
     345      322      340 1
     346      323      340 1
     347      324      348 1
     348      325      326 1
     349      325      327 1
     350      325      328 1
     351      326      330 1
     352      326      331 1
     353      326      332 1
     354      328      329 1
     355      330      333 1
     356      330      334 1
     357      330      362 1
     358      333      335 1
     359      333      337 1
     360      335      338 1
     361      335      340 1
     362      336      348 1
     363      337      344 1
     364      337      348 1
     365      338      341 1
     366      338      352 1
     367      339      353 1
     368      341      344 1
     369      341      345 1
     370      343      348 1
     371      344      349 1
     372      345      353 1
     373      345      354 1
     374      345      355 1
     375      346      360 1
     376      346      361 1
     377      349      359 1
     378      349      363 1
     379      349      365 1
     380      353      357 1
     381      353      356 1
     382      366      367 1
     383      366      370 1
     384      366      373 1
     385      367      371 1
     386      367      372 1
     387      368      371 1
     388      368      378 1
     389      368      379 1
     390      368      380 1
     391      369      370 1
     392      369      375 1
     393      369      374 1
     394      370      390 1
     395      371      374 1
     396      374      377 1
     397      376      382 1
     398      376      400 1
     399      378      381 1
     400      378      383 1
     401      381      384 1
     402      381      387 1
     403      382      384 1
     404      382      385 1
     405      383      389 1
     406      383      385 1
     407      384      388 1
     408      385      386 1
     409      390      391 1
     410      391      392 1
     411      391      393 1
     412      391      394 1
     413      392      396 1
     414      392      426 1
     415      392      433 1
     416      395      415 1
     417      395      417 1
     418      395      422 1
     419      395      425 1
     420      396      421 1
     421      397      415 1
     422      398      415 1
     423      399      423 1
     424      400      401 1
     425      400      402 1
     426      400      403 1
     427      401      405 1
     428      401      406 1
     429      401      407 1
     430      403      404 1
     431      405      408 1
     432      405      409 1
     433      405     1205 1
     434      408      410 1
     435      408      412 1
     436      410      413 1
     437      410      415 1
     438      411      423 1
     439      412      419 1
     440      412      423 1
     441      413      416 1
     442      413      427 1
     443      414      428 1
     444      416      419 1
     445      416      420 1
     446      418      423 1
     447      419      424 1
     448      420      428 1
     449      420      429 1
     450      420      430 1
     451      421      435 1
     452      421      436 1
     453      421      727 1
     454      424      434 1
     455      424      492 1
     456      424     1130 1
     457      428      432 1
     458      428      431 1
     459      437      438 1
     460      437      441 1
     461      437      444 1
     462      438      442 1
     463      438      443 1
     464      439      442 1
     465      439      449 1
     466      439      450 1
     467      439      451 1
     468      440      441 1
     469      440      446 1
     470      440      445 1
     471      441      461 1
     472      442      445 1
     473      445      448 1
     474      447      453 1
     475      447      471 1
     476      449      452 1
     477      449      454 1
     478      452      455 1
     479      452      458 1
     480      453      455 1
     481      453      456 1
     482      454      460 1
     483      454      456 1
     484      455      459 1
     485      456      457 1
     486      461      462 1
     487      462      463 1
     488      462      464 1
     489      462      465 1
     490      463      467 1
     491      463      497 1
     492      463      504 1
     493      466      486 1
     494      466      488 1
     495      466      493 1
     496      466      496 1
     497      467      492 1
     498      468      486 1
     499      469      486 1
     500      470      494 1
     501      471      472 1
     502      471      473 1
     503      471      474 1
     504      472      476 1
     505      472      477 1
     506      472      478 1
     507      474      475 1
     508      476      479 1
     509      476      480 1
     510      476     1244 1
     511      479      481 1
     512      479      483 1
     513      481      484 1
     514      481      486 1
     515      482      494 1
     516      483      490 1
     517      483      494 1
     518      484      487 1
     519      484      498 1
     520      485      499 1
     521      487      490 1
     522      487      491 1
     523      489      494 1
     524      490      495 1
     525      491      499 1
     526      491      500 1
     527      491      501 1
     528      492      506 1
     529      492      507 1
     530      495      505 1
     531      495      508 1
     532      495      564 1
     533      499      503 1
     534      499      502 1
     535      509      510 1
     536      509      513 1
     537      509      516 1
     538      510      514 1
     539      510      515 1
     540      511      514 1
     541      511      521 1
     542      511      522 1
     543      511      523 1
     544      512      513 1
     545      512      518 1
     546      512      517 1
     547      513      533 1
     548      514      517 1
     549      517      520 1
     550      519      525 1
     551      519      543 1
     552      521      524 1
     553      521      526 1
     554      524      527 1
     555      524      530 1
     556      525      527 1
     557      525      528 1
     558      526      532 1
     559      526      528 1
     560      527      531 1
     561      528      529 1
     562      533      534 1
     563      534      535 1
     564      534      536 1
     565      534      537 1
     566      535      539 1
     567      535      569 1
     568      535      576 1
     569      538      558 1
     570      538      560 1
     571      538      565 1
     572      538      568 1
     573      539      564 1
     574      540      558 1
     575      541      558 1
     576      542      566 1
     577      543      544 1
     578      543      545 1
     579      543      546 1
     580      544      548 1
     581      544      549 1
     582      544      550 1
     583      546      547 1
     584      548      551 1
     585      548      552 1
     586      548     1169 1
     587      551      553 1
     588      551      555 1
     589      553      556 1
     590      553      558 1
     591      554      566 1
     592      555      562 1
     593      555      566 1
     594      556      559 1
     595      556      570 1
     596      557      571 1
     597      559      562 1
     598      559      563 1
     599      561      566 1
     600      562      567 1
     601      563      571 1
     602      563      572 1
     603      563      573 1
     604      564      578 1
     605      564      579 1
     606      567      577 1
     607      567      580 1
     608      567      636 1
     609      571      575 1
     610      571      574 1
     611      581      582 1
     612      581      585 1
     613      581      588 1
     614      582      586 1
     615      582      587 1
     616      583      586 1
     617      583      593 1
     618      583      594 1
     619      583      595 1
     620      584      585 1
     621      584      590 1
     622      584      589 1
     623      585      605 1
     624      586      589 1
     625      589      592 1
     626      591      597 1
     627      591      615 1
     628      593      596 1
     629      593      598 1
     630      596      599 1
     631      596      602 1
     632      597      599 1
     633      597      600 1
     634      598      604 1
     635      598      600 1
     636      599      603 1
     637      600      601 1
     638      605      606 1
     639      606      607 1
     640      606      608 1
     641      606      609 1
     642      607      611 1
     643      607      641 1
     644      607      648 1
     645      610      630 1
     646      610      632 1
     647      610      637 1
     648      610      640 1
     649      611      636 1
     650      612      630 1
     651      613      630 1
     652      614      638 1
     653      615      616 1
     654      615      617 1
     655      615      618 1
     656      616      620 1
     657      616      621 1
     658      616      622 1
     659      618      619 1
     660      620      623 1
     661      620      624 1
     662      620      652 1
     663      623      625 1
     664      623      627 1
     665      625      628 1
     666      625      630 1
     667      626      638 1
     668      627      634 1
     669      627      638 1
     670      628      631 1
     671      628      642 1
     672      629      643 1
     673      631      634 1
     674      631      635 1
     675      633      638 1
     676      634      639 1
     677      635      643 1
     678      635      644 1
     679      635      645 1
     680      636      650 1
     681      636      651 1
     682      639      649 1
     683      639      653 1
     684      639      709 1
     685      643      647 1
     686      643      646 1
     687      654      655 1
     688      654      658 1
     689      654      661 1
     690      655      659 1
     691      655      660 1
     692      656      659 1
     693      656      666 1
     694      656      667 1
     695      656      668 1
     696      657      658 1
     697      657      663 1
     698      657      662 1
     699      658      678 1
     700      659      662 1
     701      662      665 1
     702      664      670 1
     703      664      688 1
     704      666      669 1
     705      666      671 1
     706      669      672 1
     707      669      675 1
     708      670      672 1
     709      670      673 1
     710      671      677 1
     711      671      673 1
     712      672      676 1
     713      673      674 1
     714      678      679 1
     715      679      680 1
     716      679      681 1
     717      679      682 1
     718      680      684 1
     719      680      714 1
     720      680      721 1
     721      683      703 1
     722      683      705 1
     723      683      710 1
     724      683      713 1
     725      684      709 1
     726      685      703 1
     727      686      703 1
     728      687      711 1
     729      688      689 1
     730      688      690 1
     731      688      691 1
     732      689      693 1
     733      689      694 1
     734      689      695 1
     735      691      692 1
     736      693      696 1
     737      693      697 1
     738      693      725 1
     739      696      698 1
     740      696      700 1
     741      698      701 1
     742      698      703 1
     743      699      711 1
     744      700      707 1
     745      700      711 1
     746      701      704 1
     747      701      715 1
     748      702      716 1
     749      704      707 1
     750      704      708 1
     751      706      711 1
     752      707      712 1
     753      708      716 1
     754      708      717 1
     755      708      718 1
     756      709      723 1
     757      709      724 1
     758      712      722 1
     759      712      726 1
     760      712      728 1
     761      716      720 1
     762      716      719 1
     763      729      730 1
     764      729      733 1
     765      729      736 1
     766      730      734 1
     767      730      735 1
     768      731      734 1
     769      731      741 1
     770      731      742 1
     771      731      743 1
     772      732      733 1
     773      732      738 1
     774      732      737 1
     775      733      753 1
     776      734      737 1
     777      737      740 1
     778      739      745 1
     779      739      763 1
     780      741      744 1
     781      741      746 1
     782      744      747 1
     783      744      750 1
     784      745      747 1
     785      745      748 1
     786      746      752 1
     787      746      748 1
     788      747      751 1
     789      748      749 1
     790      753      754 1
     791      754      755 1
     792      754      756 1
     793      754      757 1
     794      755      759 1
     795      755      789 1
     796      755      796 1
     797      758      778 1
     798      758      780 1
     799      758      785 1
     800      758      788 1
     801      759      784 1
     802      760      778 1
     803      761      778 1
     804      762      786 1
     805      763      764 1
     806      763      765 1
     807      763      766 1
     808      764      768 1
     809      764      769 1
     810      764      770 1
     811      766      767 1
     812      768      771 1
     813      768      772 1
     814      768     1208 1
     815      771      773 1
     816      771      775 1
     817      773      776 1
     818      773      778 1
     819      774      786 1
     820      775      782 1
     821      775      786 1
     822      776      779 1
     823      776      790 1
     824      777      791 1
     825      779      782 1
     826      779      783 1
     827      781      786 1
     828      782      787 1
     829      783      791 1
     830      783      792 1
     831      783      793 1
     832      784      798 1
     833      784      799 1
     834      784     1092 1
     835      787      797 1
     836      787      800 1
     837      787      856 1
     838      791      795 1
     839      791      794 1
     840      801      802 1
     841      801      805 1
     842      801      808 1
     843      802      806 1
     844      802      807 1
     845      803      806 1
     846      803      813 1
     847      803      814 1
     848      803      815 1
     849      804      805 1
     850      804      810 1
     851      804      809 1
     852      805      825 1
     853      806      809 1
     854      809      812 1
     855      811      817 1
     856      811      835 1
     857      813      816 1
     858      813      818 1
     859      816      819 1
     860      816      822 1
     861      817      819 1
     862      817      820 1
     863      818      824 1
     864      818      820 1
     865      819      823 1
     866      820      821 1
     867      825      826 1
     868      826      827 1
     869      826      828 1
     870      826      829 1
     871      827      831 1
     872      827      861 1
     873      827      868 1
     874      830      850 1
     875      830      852 1
     876      830      857 1
     877      830      860 1
     878      831      856 1
     879      832      850 1
     880      833      850 1
     881      834      858 1
     882      835      836 1
     883      835      837 1
     884      835      838 1
     885      836      840 1
     886      836      841 1
     887      836      842 1
     888      838      839 1
     889      840      843 1
     890      840      844 1
     891      840     1247 1
     892      843      845 1
     893      843      847 1
     894      845      848 1
     895      845      850 1
     896      846      858 1
     897      847      854 1
     898      847      858 1
     899      848      851 1
     900      848      862 1
     901      849      863 1
     902      851      854 1
     903      851      855 1
     904      853      858 1
     905      854      859 1
     906      855      863 1
     907      855      864 1
     908      855      865 1
     909      856      870 1
     910      856      871 1
     911      859      869 1
     912      859      872 1
     913      859      928 1
     914      863      867 1
     915      863      866 1
     916      873      874 1
     917      873      877 1
     918      873      880 1
     919      874      878 1
     920      874      879 1
     921      875      878 1
     922      875      885 1
     923      875      886 1
     924      875      887 1
     925      876      877 1
     926      876      882 1
     927      876      881 1
     928      877      897 1
     929      878      881 1
     930      881      884 1
     931      883      889 1
     932      883      907 1
     933      885      888 1
     934      885      890 1
     935      888      891 1
     936      888      894 1
     937      889      891 1
     938      889      892 1
     939      890      896 1
     940      890      892 1
     941      891      895 1
     942      892      893 1
     943      897      898 1
     944      898      899 1
     945      898      900 1
     946      898      901 1
     947      899      903 1
     948      899      933 1
     949      899      940 1
     950      902      922 1
     951      902      924 1
     952      902      929 1
     953      902      932 1
     954      903      928 1
     955      904      922 1
     956      905      922 1
     957      906      930 1
     958      907      908 1
     959      907      909 1
     960      907      910 1
     961      908      912 1
     962      908      913 1
     963      908      914 1
     964      910      911 1
     965      912      915 1
     966      912      916 1
     967      912      944 1
     968      915      917 1
     969      915      919 1
     970      917      920 1
     971      917      922 1
     972      918      930 1
     973      919      926 1
     974      919      930 1
     975      920      923 1
     976      920      934 1
     977      921      935 1
     978      923      926 1
     979      923      927 1
     980      925      930 1
     981      926      931 1
     982      927      935 1
     983      927      936 1
     984      927      937 1
     985      928      942 1
     986      928      943 1
     987      931      941 1
     988      931      945 1
     989      931     1001 1
     990      935      939 1
     991      935      938 1
     992      946      947 1
     993      946      950 1
     994      946      953 1
     995      947      951 1
     996      947      952 1
     997      948      951 1
     998      948      958 1
     999      948      959 1
    1000      948      960 1
    1001      949      950 1
    1002      949      955 1
    1003      949      954 1
    1004      950      970 1
    1005      951      954 1
    1006      954      957 1
    1007      956      962 1
    1008      956      980 1
    1009      958      961 1
    1010      958      963 1
    1011      961      964 1
    1012      961      967 1
    1013      962      964 1
    1014      962      965 1
    1015      963      969 1
    1016      963      965 1
    1017      964      968 1
    1018      965      966 1
    1019      970      971 1
    1020      971      972 1
    1021      971      973 1
    1022      971      974 1
    1023      972      976 1
    1024      972     1006 1
    1025      972     1013 1
    1026      975      995 1
    1027      975      997 1
    1028      975     1002 1
    1029      975     1005 1
    1030      976     1001 1
    1031      977      995 1
    1032      978      995 1
    1033      979     1003 1
    1034      980      981 1
    1035      980      982 1
    1036      980      983 1
    1037      981      985 1
    1038      981      986 1
    1039      981      987 1
    1040      983      984 1
    1041      985      988 1
    1042      985      989 1
    1043      985     1017 1
    1044      988      990 1
    1045      988      992 1
    1046      990      993 1
    1047      990      995 1
    1048      991     1003 1
    1049      992      999 1
    1050      992     1003 1
    1051      993      996 1
    1052      993     1007 1
    1053      994     1008 1
    1054      996      999 1
    1055      996     1000 1
    1056      998     1003 1
    1057      999     1004 1
    1058     1000     1008 1
    1059     1000     1009 1
    1060     1000     1010 1
    1061     1001     1015 1
    1062     1001     1016 1
    1063     1004     1014 1
    1064     1004     1018 1
    1065     1004     1074 1
    1066     1008     1012 1
    1067     1008     1011 1
    1068     1019     1020 1
    1069     1019     1023 1
    1070     1019     1026 1
    1071     1020     1024 1
    1072     1020     1025 1
    1073     1021     1024 1
    1074     1021     1031 1
    1075     1021     1032 1
    1076     1021     1033 1
    1077     1022     1023 1
    1078     1022     1028 1
    1079     1022     1027 1
    1080     1023     1043 1
    1081     1024     1027 1
    1082     1027     1030 1
    1083     1029     1035 1
    1084     1029     1053 1
    1085     1031     1034 1
    1086     1031     1036 1
    1087     1034     1037 1
    1088     1034     1040 1
    1089     1035     1037 1
    1090     1035     1038 1
    1091     1036     1042 1
    1092     1036     1038 1
    1093     1037     1041 1
    1094     1038     1039 1
    1095     1043     1044 1
    1096     1044     1045 1
    1097     1044     1046 1
    1098     1044     1047 1
    1099     1045     1049 1
    1100     1045     1079 1
    1101     1045     1086 1
    1102     1048     1068 1
    1103     1048     1070 1
    1104     1048     1075 1
    1105     1048     1078 1
    1106     1049     1074 1
    1107     1050     1068 1
    1108     1051     1068 1
    1109     1052     1076 1
    1110     1053     1054 1
    1111     1053     1055 1
    1112     1053     1056 1
    1113     1054     1058 1
    1114     1054     1059 1
    1115     1054     1060 1
    1116     1056     1057 1
    1117     1058     1061 1
    1118     1058     1062 1
    1119     1058     1090 1
    1120     1061     1063 1
    1121     1061     1065 1
    1122     1063     1066 1
    1123     1063     1068 1
    1124     1064     1076 1
    1125     1065     1072 1
    1126     1065     1076 1
    1127     1066     1069 1
    1128     1066     1080 1
    1129     1067     1081 1
    1130     1069     1072 1
    1131     1069     1073 1
    1132     1071     1076 1
    1133     1072     1077 1
    1134     1073     1081 1
    1135     1073     1082 1
    1136     1073     1083 1
    1137     1074     1088 1
    1138     1074     1089 1
    1139     1077     1087 1
    1140     1077     1091 1
    1141     1077     1093 1
    1142     1081     1085 1
    1143     1081     1084 1
    1144     1094     1095 1
    1145     1094     1098 1
    1146     1094     1101 1
    1147     1095     1099 1
    1148     1095     1100 1
    1149     1096     1099 1
    1150     1096     1106 1
    1151     1096     1107 1
    1152     1096     1108 1
    1153     1097     1098 1
    1154     1097     1103 1
    1155     1097     1102 1
    1156     1098     1118 1
    1157     1099     1102 1
    1158     1102     1105 1
    1159     1104     1110 1
    1160     1104     1122 1
    1161     1106     1109 1
    1162     1106     1111 1
    1163     1109     1112 1
    1164     1109     1115 1
    1165     1110     1112 1
    1166     1110     1113 1
    1167     1111     1117 1
    1168     1111     1113 1
    1169     1112     1116 1
    1170     1113     1114 1
    1171     1118     1119 1
    1172     1119     1126 1
    1173     1119     1127 1
    1174     1119     1129 1
    1175     1120     1127 1
    1176     1121     1129 1
    1177     1122     1125 1
    1178     1122     1130 1
    1179     1122     1131 1
    1180     1123     1125 1
    1181     1124     1130 1
    1182     1127     1128 1
    1183     1130     1132 1
    1184     1133     1134 1
    1185     1133     1137 1
    1186     1133     1140 1
    1187     1134     1138 1
    1188     1134     1139 1
    1189     1135     1138 1
    1190     1135     1145 1
    1191     1135     1146 1
    1192     1135     1147 1
    1193     1136     1137 1
    1194     1136     1142 1
    1195     1136     1141 1
    1196     1137     1157 1
    1197     1138     1141 1
    1198     1141     1144 1
    1199     1143     1149 1
    1200     1143     1161 1
    1201     1145     1148 1
    1202     1145     1150 1
    1203     1148     1151 1
    1204     1148     1154 1
    1205     1149     1151 1
    1206     1149     1152 1
    1207     1150     1156 1
    1208     1150     1152 1
    1209     1151     1155 1
    1210     1152     1153 1
    1211     1157     1158 1
    1212     1158     1165 1
    1213     1158     1166 1
    1214     1158     1168 1
    1215     1159     1166 1
    1216     1160     1168 1
    1217     1161     1164 1
    1218     1161     1169 1
    1219     1161     1170 1
    1220     1162     1164 1
    1221     1163     1169 1
    1222     1166     1167 1
    1223     1169     1171 1
    1224     1172     1173 1
    1225     1172     1176 1
    1226     1172     1179 1
    1227     1173     1177 1
    1228     1173     1178 1
    1229     1174     1177 1
    1230     1174     1184 1
    1231     1174     1185 1
    1232     1174     1186 1
    1233     1175     1176 1
    1234     1175     1181 1
    1235     1175     1180 1
    1236     1176     1196 1
    1237     1177     1180 1
    1238     1180     1183 1
    1239     1182     1188 1
    1240     1182     1200 1
    1241     1184     1187 1
    1242     1184     1189 1
    1243     1187     1190 1
    1244     1187     1193 1
    1245     1188     1190 1
    1246     1188     1191 1
    1247     1189     1195 1
    1248     1189     1191 1
    1249     1190     1194 1
    1250     1191     1192 1
    1251     1196     1197 1
    1252     1197     1204 1
    1253     1197     1205 1
    1254     1197     1207 1
    1255     1198     1205 1
    1256     1199     1207 1
    1257     1200     1203 1
    1258     1200     1208 1
    1259     1200     1209 1
    1260     1201     1203 1
    1261     1202     1208 1
    1262     1205     1206 1
    1263     1208     1210 1
    1264     1211     1212 1
    1265     1211     1215 1
    1266     1211     1218 1
    1267     1212     1216 1
    1268     1212     1217 1
    1269     1213     1216 1
    1270     1213     1223 1
    1271     1213     1224 1
    1272     1213     1225 1
    1273     1214     1215 1
    1274     1214     1220 1
    1275     1214     1219 1
    1276     1215     1235 1
    1277     1216     1219 1
    1278     1219     1222 1
    1279     1221     1227 1
    1280     1221     1239 1
    1281     1223     1226 1
    1282     1223     1228 1
    1283     1226     1229 1
    1284     1226     1232 1
    1285     1227     1229 1
    1286     1227     1230 1
    1287     1228     1234 1
    1288     1228     1230 1
    1289     1229     1233 1
    1290     1230     1231 1
    1291     1235     1236 1
    1292     1236     1243 1
    1293     1236     1244 1
    1294     1236     1246 1
    1295     1237     1244 1
    1296     1238     1246 1
    1297     1239     1242 1
    1298     1239     1247 1
    1299     1239     1248 1
    1300     1240     1242 1
    1301     1241     1247 1
    1302     1244     1245 1
    1303     1247     1249 1
@<TRIPOS>SUBSTRUCTURE
       1 RES             1 RESIDUE    0 **** ROOT      0
