@<TRIPOS>MOLECULE
RES
1809 1863 1 0 1
SMALL
NO_CHARGES
@<TRIPOS>CRYSIN
  246.2706    89.2399   322.4114    90.0000    90.0000    90.0000 1 1
@<TRIPOS>ATOM
       1 C           22.1685   143.7431    12.0099 C             1 RES     
       2 C           24.0175   145.3332    11.9257 C             1 RES     
       3 C           28.6829   145.6081    11.9258 C             1 RES     
       4 C           23.7662   140.3511    11.9258 C             1 RES     
       5 C           22.2287   141.7112    11.9258 C             1 RES     
       6 C           25.9542   144.0322    11.9257 C             1 RES     
       7 H           24.0727   146.4017    11.9257 H             1 RES     
       8 H           21.1975   144.8609    11.9258 H             1 RES     
       9 C           25.8802   141.8294    11.9257 C             1 RES     
      10 H           23.7053   139.2828    11.9258 H             1 RES     
      11 O           39.9680   140.3375    13.6693 O             1 RES     
      12 H           26.8208   141.3192    11.9257 H             1 RES     
      13 C           31.3027   144.4196    11.9871 C             1 RES     
      14 H           28.6871   146.2258    11.0522 H             1 RES     
      15 H           28.6863   146.1109    12.8703 H             1 RES     
      16 C           33.3332   145.9752    11.9258 C             1 RES     
      17 C           35.5260   141.5976    12.8325 C             1 RES     
      18 C           31.1549   141.3983    11.9258 C             1 RES     
      19 C           35.4804   144.7534    11.8839 C             1 RES     
      20 C           33.2406   140.3867    11.8072 C             1 RES     
      21 H           33.4419   139.1526    11.6638 H             1 RES     
      22 H           33.3618   147.0448    11.9258 H             1 RES     
      23 H           36.3227   144.4387    11.4817 H             1 RES     
      24 H           30.1889   140.9380    11.9258 H             1 RES     
      25 O           20.3061   140.8561    12.7378 O             1 RES     
      26 C           18.5046   142.1610    13.5747 C             1 RES     
      27 C           15.7411   141.1917    13.4540 C             1 RES     
      28 H           18.4449   142.6025    14.9749 H             1 RES     
      29 H           18.0163   142.4823    12.1244 H             1 RES     
      30 C           43.2311   145.9270    15.8682 C             1 RES     
      31 O           13.4650   142.6104    11.6616 O             1 RES     
      32 H           46.6004   147.2567    16.4092 H             1 RES     
      33 H           45.8637   147.3058    17.8779 H             1 RES     
      34 H           48.6579   135.9869    20.3809 H             1 RES     
      35 C           41.0125   141.5011    13.4645 C             1 RES     
      36 C           43.7184   140.0755    14.0824 C             1 RES     
      37 H           39.9975   142.3634    13.9609 H             1 RES     
      38 O           41.2683   142.1134    11.8713 O             1 RES     
      39 H           41.1981   142.6186    10.8058 H             1 RES     
      40 N           45.0948   141.2567    13.9517 N             1 RES     
      41 H           43.3733   139.6266    15.1313 H             1 RES     
      42 H           44.2298   139.1830    12.5038 H             1 RES     
      43 C           46.9024   140.6375    18.1705 C             1 RES     
      44 H           44.9733   142.5465    13.9505 H             1 RES     
      45 C           46.8435   143.0034    17.8299 C             1 RES     
      46 H           49.6916   135.8544    18.5970 H             1 RES     
      47 C           49.1241   139.0942    19.2950 C             1 RES     
      48 C           48.9978   144.9017    18.6029 C             1 RES     
      49 H           54.3070   148.8613    20.0213 H             1 RES     
      50 C           45.9289   146.6813    17.0116 C             1 RES     
      51 C           50.8535   143.4139    19.6108 C             1 RES     
      52 H           42.6851   146.8150    15.6270 H             1 RES     
      53 H           50.3882   136.1584    20.2088 H             1 RES     
      54 C           51.1177   140.4339    20.0584 C             1 RES     
      55 C           53.3798   144.7693    19.3247 C             1 RES     
      56 C           11.0893   142.9980    11.2515 C             1 RES     
      57 H           43.3698   145.3421    14.9831 H             1 RES     
      58 C           49.4419   136.3373    19.7426 C             1 RES     
      59 N           55.6118   139.2875    17.5687 N             1 RES     
      60 H           42.6844   145.3572    16.5903 H             1 RES     
      61 H           15.2785   141.3690    12.2300 H             1 RES     
      62 H           49.0032   145.9656    18.4888 H             1 RES     
      63 C           54.6689   148.2455    20.8180 C             1 RES     
      64 H           54.1460   144.1729    18.5333 H             1 RES     
      65 H           53.7561   144.9890    19.5779 H             1 RES     
      66 H           54.3877   148.6751    21.7568 H             1 RES     
      67 H           55.7354   148.1792    20.7613 H             1 RES     
      68 H           16.3191   139.9189    12.3005 H             1 RES     
      69 H           55.8366   139.9762    16.5582 H             1 RES     
      70 H           11.2128   142.8005    12.8610 H             1 RES     
      71 H           11.6716   143.5796    10.0000 H             1 RES     
      72 H           45.3505   139.5295    13.9496 H             1 RES     
      73 H           55.6751   137.9150    17.5687 H             1 RES     
      74 C           71.2846   139.2046    17.7885 C             1 RES     
      75 C           73.2229   140.6608    17.5117 C             1 RES     
      76 C           77.8881   140.6226    17.2354 C             1 RES     
      77 C           72.6550   135.7135    17.8062 C             1 RES     
      78 C           71.2101   137.1716    17.8157 C             1 RES     
      79 C           75.0693   139.2349    17.4766 C             1 RES     
      80 H           73.3461   141.7217    17.4485 H             1 RES     
      81 H           70.3836   140.3788    17.6961 H             1 RES     
      82 C           74.8552   137.0451    17.6047 C             1 RES     
      83 H           72.5262   134.6532    17.8697 H             1 RES     
      84 O           88.8980   134.7077    18.6388 O             1 RES     
      85 H           75.7597   136.4738    17.5808 H             1 RES     
      86 C           80.4258   139.2664    17.2168 C             1 RES     
      87 H           77.8797   141.1919    16.3296 H             1 RES     
      88 H           77.9797   141.1729    18.1484 H             1 RES     
      89 C           82.5441   140.6773    16.9546 C             1 RES     
      90 C           84.5034   136.2165    17.9822 C             1 RES     
      91 C           80.0823   136.2627    17.3340 C             1 RES     
      92 C           84.6027   139.3141    16.8615 C             1 RES     
      93 C           82.0885   135.1090    17.1560 C             1 RES     
      94 H           82.2019   133.8584    17.0713 H             1 RES     
      95 H           82.6408   141.7411    16.8929 H             1 RES     
      96 H           85.3978   138.9231    16.4312 H             1 RES     
      97 H           79.0907   135.8687    17.4139 H             1 RES     
      98 O           69.2886   136.4908    18.7808 O             1 RES     
      99 C           67.6269   137.9554    19.6424 C             1 RES     
     100 C           64.8050   137.1681    19.7311 C             1 RES     
     101 H           67.6789   138.4728    21.0166 H             1 RES     
     102 H           67.0747   138.2321    18.2059 H             1 RES     
     103 C           92.6358   140.1741    20.3337 C             1 RES     
     104 O           62.5214   138.6399    17.9919 O             1 RES     
     105 H           96.1092   141.3020    20.6097 H             1 RES     
     106 H           95.4658   141.4773    22.1123 H             1 RES     
     107 H           97.6767   130.1438    25.0880 H             1 RES     
     108 C           90.0005   135.7865    18.3107 C             1 RES     
     109 C           92.6420   134.2175    18.8555 C             1 RES     
     110 H           89.0738   136.7396    18.8138 H             1 RES     
     111 O           90.1995   136.2958    16.6738 O             1 RES     
     112 H           90.0984   136.7480    15.5871 H             1 RES     
     113 N           94.0806   135.2954    18.5818 N             1 RES     
     114 H           92.3320   133.8483    19.9457 H             1 RES     
     115 H           93.0006   133.2111    17.3035 H             1 RES     
     116 C           96.0929   134.7790    22.7210 C             1 RES     
     117 H           94.0417   136.5886    18.5148 H             1 RES     
     118 C           96.1647   137.1224    22.2517 C             1 RES     
     119 H           98.5919   129.8490    23.2593 H             1 RES     
     120 C           98.2746   133.1517    23.8046 C             1 RES     
     121 C           98.4778   138.9103    22.7949 C             1 RES     
     122 H          104.1036   142.5748    23.6891 H             1 RES     
     123 C           95.4394   140.8052    21.2802 C             1 RES     
     124 C          100.2916   137.3566    23.7796 C             1 RES     
     125 H           92.1341   141.0827    20.0738 H             1 RES     
     126 H           99.4011   130.1899    24.8100 H             1 RES     
     127 C          100.3914   134.3933    24.3787 C             1 RES     
     128 C          102.8777   138.5231    23.2768 C             1 RES     
     129 C           60.1550   139.1635    17.6941 C             1 RES     
     130 H           92.6840   139.5356    19.4766 H             1 RES     
     131 C           98.4421   130.4070    24.3881 C             1 RES     
     132 N          104.6472   132.8197    21.7100 N             1 RES     
     133 H           92.0978   139.6808    21.1162 H             1 RES     
     134 H           64.2826   137.3115    18.5269 H             1 RES     
     135 H           98.5443   139.9640    22.6210 H             1 RES     
     136 C          104.4723   141.9789    24.4977 C             1 RES     
     137 H          103.5558   137.8361    22.4786 H             1 RES     
     138 H          103.2816   138.7301    23.4958 H             1 RES     
     139 H          104.2754   142.4750    25.4251 H             1 RES     
     140 H          105.5271   141.8385    24.3853 H             1 RES     
     141 H           65.2310   135.8007    18.6206 H             1 RES     
     142 H          104.8550   133.4378    20.6513 H             1 RES     
     143 H           60.3612   139.0429    19.3028 H             1 RES     
     144 H           60.6977   139.6383    16.3813 H             1 RES     
     145 H          104.6228   131.4479    21.7837 H             1 RES     
     146 C          120.2681   131.7002    21.0572 C             1 RES     
     147 C          122.2754   133.0070    20.5909 C             1 RES     
     148 C          126.9040   132.6423    20.0566 C             1 RES     
     149 C          121.4118   128.1311    21.1945 C             1 RES     
     150 C          120.0659   129.6810    21.2028 C             1 RES     
     151 C          124.0218   131.4609    20.5328 C             1 RES     
     152 H          122.4619   134.0525    20.4613 H             1 RES     
     153 H          119.4399   132.9256    20.9494 H             1 RES     
     154 C          123.6765   129.3000    20.7957 C             1 RES     
     155 H          121.2197   127.0865    21.3247 H             1 RES     
     156 O          137.5783   126.0860    21.1726 O             1 RES     
     157 H          124.5397   128.6691    20.7534 H             1 RES     
     158 C          129.3444   131.1203    19.9725 C             1 RES     
     159 H          126.8780   133.1626    19.1221 H             1 RES     
     160 H          127.0846   133.2325    20.9307 H             1 RES     
     161 C          131.5290   132.3706    19.5133 C             1 RES     
     162 C          133.2576   127.8488    20.6789 C             1 RES     
     163 C          128.8177   128.1566    20.2775 C             1 RES     
     164 C          133.4873   130.8698    19.3820 C             1 RES     
     165 C          130.7322   126.8636    20.0528 C             1 RES     
     166 H          130.7603   125.6054    20.0324 H             1 RES     
     167 H          131.6894   133.4209    19.3864 H             1 RES     
     168 H          134.2289   130.4044    18.9305 H             1 RES     
     169 H          127.8095   127.8345    20.4348 H             1 RES     
     170 O          118.1657   129.1819    22.3106 O             1 RES     
     171 C          116.6550   130.7975    23.1800 C             1 RES     
     172 C          113.7989   130.2066    23.4706 C             1 RES     
     173 H          116.8215   131.3817    24.5179 H             1 RES     
     174 H          116.0371   131.0348    21.7634 H             1 RES     
     175 C          141.7512   131.3715    22.3456 C             1 RES     
     176 O          111.5143   131.7344    21.7818 O             1 RES     
     177 H          145.2997   132.2775    22.3630 H             1 RES     
     178 H          144.7593   132.5740    23.8869 H             1 RES     
     179 H          146.4164   121.2899    27.3672 H             1 RES     
     180 C          138.7259   127.0699    20.7232 C             1 RES     
     181 C          141.2897   125.3585    21.2069 C             1 RES     
     182 H          137.8935   128.1080    21.2229 H             1 RES     
     183 O          138.8593   127.4782    19.0516 O             1 RES     
     184 H          138.7227   127.8784    17.9486 H             1 RES     
     185 N          142.7753   126.3219    20.7929 N             1 RES     
     186 H          141.0222   125.0686    22.3317 H             1 RES     
     187 H          141.4905   124.2503    19.6963 H             1 RES     
     188 C          144.9932   125.8900    24.8356 C             1 RES     
     189 H          142.8150   127.6095    20.6555 H             1 RES     
     190 C          145.1863   128.1955    24.2318 C             1 RES     
     191 H          147.2005   120.8390    25.5098 H             1 RES     
     192 C          147.1274   124.1795    25.8852 C             1 RES     
     193 C          147.6369   129.8507    24.5434 C             1 RES     
     194 H          153.5280   133.1726    24.9139 H             1 RES     
     195 C          144.6407   131.8625    23.0967 C             1 RES     
     196 C          149.4032   128.2330    25.5109 C             1 RES     
     197 H          141.2939   132.2968    22.0634 H             1 RES     
     198 H          148.1206   121.2059    26.9911 H             1 RES     
     199 C          149.3495   125.3051    26.2692 C             1 RES     
     200 C          152.0239   129.1959    24.7994 C             1 RES     
     201 C          109.1727   132.3988    21.5879 C             1 RES     
     202 H          141.7075   130.6871    21.5243 H             1 RES     
     203 C          147.1540   121.4642    26.6120 C             1 RES     
     204 N          153.3299   123.3125    23.4595 N             1 RES     
     205 H          141.2304   130.9571    23.1834 H             1 RES     
     206 H          113.2161   130.3211    22.2913 H             1 RES     
     207 H          147.7598   130.8870    24.3070 H             1 RES     
     208 C          153.9054   132.5965    25.7328 C             1 RES     
     209 H          152.6082   128.4241    24.0045 H             1 RES     
     210 H          152.4525   129.3866    24.9835 H             1 RES     
     211 H          153.7961   133.1527    26.6404 H             1 RES     
     212 H          154.9406   132.3802    25.5696 H             1 RES     
     213 H          114.0701   128.7573    22.4167 H             1 RES     
     214 H          153.5133   123.8589    22.3577 H             1 RES     
     215 H          109.4661   132.3493    23.1867 H             1 RES     
     216 H          109.6655   132.7667    20.2221 H             1 RES     
     217 H          142.8133   124.5846    20.9631 H             1 RES     
     218 H          153.2225   121.9512    23.6115 H             1 RES     
     219 C          168.7811   121.1178    21.9980 C             1 RES     
     220 C          170.8364   122.2611    21.3474 C             1 RES     
     221 C          175.3922   121.5602    20.5764 C             1 RES     
     222 C          169.7011   117.4924    22.2718 C             1 RES     
     223 C          168.4596   119.1271    22.2681 C             1 RES     
     224 C          172.4741   120.6008    21.2788 C             1 RES     
     225 H          171.0811   123.2836    21.1489 H             1 RES     
     226 H          168.0278   122.3886    21.8679 H             1 RES     
     227 C          172.0080   118.4846    21.6817 C             1 RES     
     228 H          169.4509   116.4713    22.4711 H             1 RES     
     229 O          185.6744   114.3721    21.4608 O             1 RES     
     230 H          172.8251   117.7960    21.6268 H             1 RES     
     231 C          177.7214   119.8760    20.4417 C             1 RES     
     232 H          175.3439   122.0312    19.6170 H             1 RES     
     233 H          175.6618   122.1819    21.4044 H             1 RES     
     234 C          179.9500   120.9515    19.7914 C             1 RES     
     235 C          181.4531   116.3916    21.1111 C             1 RES     
     236 C          177.0259   116.9742    20.9420 C             1 RES     
     237 C          181.7974   119.3182    19.6355 C             1 RES     
     238 C          178.8373   115.5460    20.6837 C             1 RES     
     239 H          178.7839   114.2895    20.7325 H             1 RES     
     240 H          180.1692   121.9806    19.5969 H             1 RES     
     241 H          182.4796   118.7812    19.1701 H             1 RES     
     242 H          176.0103   116.7291    21.1733 H             1 RES     
     243 O          166.6008   118.8151    23.5068 O             1 RES     
     244 C          165.2506   120.5716    24.3670 C             1 RES     
     245 C          162.3849   120.1891    24.8497 C             1 RES     
     246 H          165.5333   121.2127    25.6585 H             1 RES     
     247 H          164.5658   120.7749    22.9760 H             1 RES     
     248 C          190.2381   119.4209    22.0992 C             1 RES     
     249 O          160.1060   121.7756    23.2080 O             1 RES     
     250 H          193.8318   120.0871    21.8671 H             1 RES     
     251 H          193.4031   120.4987    23.3998 H             1 RES     
     252 H          194.5416   109.3273    27.4114 H             1 RES     
     253 C          186.8535   115.2521    20.8932 C             1 RES     
     254 C          189.3273   113.4007    21.3283 C             1 RES     
     255 H          186.1202   116.3683    21.3795 H             1 RES     
     256 O          186.9130   115.5622    19.1965 O             1 RES     
     257 H          186.7369   115.9122    18.0821 H             1 RES     
     258 N          190.8440   114.2396    20.7783 N             1 RES     
     259 H          189.1092   113.1889    22.4808 H             1 RES     
     260 H          189.3668   112.2039    19.8736 H             1 RES     
     261 C          193.2665   113.8731    24.7085 C             1 RES     
     262 H          190.9575   115.5127    20.5667 H             1 RES     
     263 C          193.5698   116.1256    23.9661 C             1 RES     
     264 H          195.1834   108.7281    25.5413 H             1 RES     
     265 C          195.3459   112.0811    25.7317 C             1 RES     
     266 C          196.1351   117.6272    24.0465 C             1 RES     
     267 H          202.2377   120.5624    23.8994 H             1 RES     
     268 C          193.1925   119.7562    22.6588 C             1 RES     
     269 C          197.8492   115.9480    25.0032 C             1 RES     
     270 H          189.8247   120.3586    21.7915 H             1 RES     
     271 H          196.2116   109.1098    26.9458 H             1 RES     
     272 C          197.6541   113.0741    25.9269 C             1 RES     
     273 C          200.4790   116.6947    24.0932 C             1 RES     
     274 C          157.8041   122.5840    23.1083 C             1 RES     
     275 H          190.1021   118.6988    21.3215 H             1 RES     
     276 C          195.2425   109.4120    26.6075 C             1 RES     
     277 N          201.3252   110.6750    23.0154 N             1 RES     
     278 H          189.7427   119.0868    22.9869 H             1 RES     
     279 H          161.7414   120.2803    23.7003 H             1 RES     
     280 H          196.3096   118.6391    23.7457 H             1 RES     
     281 C          202.6256   120.0062    24.7271 C             1 RES     
     282 H          200.9645   115.8449    23.3115 H             1 RES     
     283 H          200.9291   116.8658    24.2420 H             1 RES     
     284 H          202.6061   120.6153    25.6066 H             1 RES     
     285 H          203.6333   119.7129    24.5187 H             1 RES     
     286 H          162.5000   118.6716    23.8655 H             1 RES     
     287 H          201.4772   111.1493    21.8762 H             1 RES     
     288 H          158.1883   122.5990    24.6884 H             1 RES     
     289 H          158.2372   122.8459    21.6986 H             1 RES     
     290 H          201.1405   109.3338    23.2496 H             1 RES     
     291 C          216.4908   107.3779    20.8179 C             1 RES     
     292 C          218.5723   108.3455    19.9900 C             1 RES     
     293 C          223.0203   107.3018    19.0061 C             1 RES     
     294 C          217.1924   103.7184    21.2433 C             1 RES     
     295 C          216.0596   105.4301    21.2171 C             1 RES     
     296 C          220.0939   106.5780    19.9235 C             1 RES     
     297 H          218.8695   109.3374    19.7209 H             1 RES     
     298 H          215.8135   108.6877    20.6588 H             1 RES     
     299 C          219.5186   104.5218    20.4703 C             1 RES     
     300 H          216.8899   102.7282    21.5135 H             1 RES     
     301 O          232.8576    99.4984    19.7170 O             1 RES     
     302 H          220.2855   103.7781    20.4086 H             1 RES     
     303 C          225.2252   105.4608    18.8363 C             1 RES     
     304 H          222.9451   107.7241    18.0259 H             1 RES     
     305 H          223.3778   107.9468    19.7815 H             1 RES     
     306 C          227.4752   106.3493    18.0029 C             1 RES     
     307 C          228.7604   101.7746    19.4910 C             1 RES     
     308 C          224.3771   102.6424    19.5372 C             1 RES     
     309 C          229.2022   104.5901    17.8360 C             1 RES     
     310 C          226.0752   101.0846    19.2588 C             1 RES     
     311 H          225.9448    99.8388    19.3811 H             1 RES     
     312 H          227.7476   107.3497    17.7388 H             1 RES     
     313 H          229.8198   103.9850    17.3642 H             1 RES     
     314 H          223.3636   102.4782    19.8384 H             1 RES     
     315 O          214.2617   105.3086    22.5734 O             1 RES     
     316 C          213.0797   107.1942    23.4076 C             1 RES     
     317 C          210.2294   107.0301    24.0706 C             1 RES     
     318 H          213.4791   107.8819    24.6432 H             1 RES     
     319 H          212.3278   107.3696    22.0479 H             1 RES     
     320 C          237.7638   104.2571    19.8141 C             1 RES     
     321 O          207.9626   108.6771    22.4723 O             1 RES     
     322 H          241.3725   104.6683    19.3443 H             1 RES     
     323 H          241.0628   105.1876    20.8729 H             1 RES     
     324 H          241.7235    94.1910    25.4368 H             1 RES     
     325 C          234.0546   100.2665    19.0358 C             1 RES     
     326 C          236.4268    98.2792    19.4353 C             1 RES     
     327 H          233.4242   101.4533    19.4988 H             1 RES     
     328 O          234.0327   100.4825    17.3237 O             1 RES     
     329 H          233.8133   100.7845    16.2029 H             1 RES     
     330 N          237.9585    98.9847    18.7550 N             1 RES     
     331 H          236.2647    98.1432    20.6083 H             1 RES     
     332 H          236.3033    97.0077    18.0503 H             1 RES     
     333 C          240.5822    98.6637    22.5579 C             1 RES     
     334 H          238.1402   100.2345    18.4661 H             1 RES     
     335 C          240.9839   100.8488    21.6742 C             1 RES     
     336 H          242.2135    93.4528    23.5704 H             1 RES     
     337 C          242.6004    96.7929    23.5624 C             1 RES     
     338 C          243.6399   102.1776    21.5263 C             1 RES     
     339 H          249.8975   104.6863    20.8732 H             1 RES     
     340 C          240.7617   104.4230    20.1878 C             1 RES     
     341 C          245.2973   100.4401    22.4786 C             1 RES     
     342 H          237.3935   105.2029    19.4777 H             1 RES     
     343 H          243.3456    93.8382    24.8915 H             1 RES     
     344 C          244.9747    97.6381    23.5721 C             1 RES     
     345 C          247.9105   100.9604    21.3824 C             1 RES     
     346 C          205.7150   109.6314    22.4561 C             1 RES     
     347 H          237.5360   103.5059    19.0871 H             1 RES     
     348 C          242.3794    94.1863    24.5914 C             1 RES     
     349 N          248.3057    94.8493    20.5994 N             1 RES     
     350 H          237.3018   104.0040    20.7455 H             1 RES     
     351 H          209.5257   107.1037    22.9557 H             1 RES     
     352 H          243.8604   103.1584    21.1598 H             1 RES     
     353 C          250.2978   104.1496    21.7079 C             1 RES     
     354 H          248.2936   100.0402    20.6238 H             1 RES     
     355 H          248.3787   101.1086    21.4959 H             1 RES     
     356 H          250.3695   104.8040    22.5515 H             1 RES     
     357 H          251.2706   103.7789    21.4603 H             1 RES     
     358 H          210.1887   105.4588    23.1684 H             1 RES     
     359 H          248.4196    95.2520    19.4286 H             1 RES     
     360 H          206.1928   109.7035    24.0090 H             1 RES     
     361 H          206.0793   109.7894    21.0119 H             1 RES     
     362 H          237.8018    97.2845    19.1200 H             1 RES     
     363 H          248.0501    93.5376    20.9186 H             1 RES     
     364 H           10.0000   142.9597    11.1579 H             1 RES     
     365 H          249.3339    94.5214    20.4203 H             1 RES     
     366 C           22.1685   143.7431   162.0099 C             1 RES     
     367 C           24.0175   145.3332   161.9257 C             1 RES     
     368 C           28.6829   145.6081   161.9258 C             1 RES     
     369 C           23.7662   140.3511   161.9258 C             1 RES     
     370 C           22.2287   141.7112   161.9258 C             1 RES     
     371 C           25.9542   144.0322   161.9257 C             1 RES     
     372 H           24.0727   146.4017   161.9257 H             1 RES     
     373 H           21.1975   144.8609   161.9258 H             1 RES     
     374 C           25.8802   141.8294   161.9257 C             1 RES     
     375 H           23.7053   139.2828   161.9258 H             1 RES     
     376 O           39.9680   140.3375   163.6693 O             1 RES     
     377 H           26.8208   141.3192   161.9257 H             1 RES     
     378 C           31.3027   144.4196   161.9871 C             1 RES     
     379 H           28.6871   146.2258   161.0522 H             1 RES     
     380 H           28.6863   146.1109   162.8703 H             1 RES     
     381 C           33.3332   145.9752   161.9258 C             1 RES     
     382 C           35.5260   141.5976   162.8325 C             1 RES     
     383 C           31.1549   141.3983   161.9258 C             1 RES     
     384 C           35.4804   144.7534   161.8839 C             1 RES     
     385 C           33.2406   140.3867   161.8072 C             1 RES     
     386 H           33.4419   139.1526   161.6638 H             1 RES     
     387 H           33.3618   147.0448   161.9258 H             1 RES     
     388 H           36.3227   144.4387   161.4817 H             1 RES     
     389 H           30.1889   140.9380   161.9258 H             1 RES     
     390 O           20.3061   140.8561   162.7378 O             1 RES     
     391 C           18.5046   142.1610   163.5747 C             1 RES     
     392 C           15.7411   141.1917   163.4540 C             1 RES     
     393 H           18.4449   142.6025   164.9749 H             1 RES     
     394 H           18.0163   142.4823   162.1244 H             1 RES     
     395 C           43.2311   145.9270   165.8682 C             1 RES     
     396 O           13.4650   142.6104   161.6616 O             1 RES     
     397 H           46.6004   147.2567   166.4092 H             1 RES     
     398 H           45.8637   147.3058   167.8779 H             1 RES     
     399 H           48.6579   135.9869   170.3809 H             1 RES     
     400 C           41.0125   141.5011   163.4645 C             1 RES     
     401 C           43.7184   140.0755   164.0824 C             1 RES     
     402 H           39.9975   142.3634   163.9609 H             1 RES     
     403 O           41.2683   142.1134   161.8713 O             1 RES     
     404 H           41.1981   142.6186   160.8058 H             1 RES     
     405 N           45.0948   141.2567   163.9517 N             1 RES     
     406 H           43.3733   139.6266   165.1313 H             1 RES     
     407 H           44.2298   139.1830   162.5038 H             1 RES     
     408 C           46.9024   140.6375   168.1705 C             1 RES     
     409 H           44.9733   142.5465   163.9505 H             1 RES     
     410 C           46.8435   143.0034   167.8299 C             1 RES     
     411 H           49.6916   135.8544   168.5970 H             1 RES     
     412 C           49.1241   139.0942   169.2950 C             1 RES     
     413 C           48.9978   144.9017   168.6029 C             1 RES     
     414 H           54.3070   148.8613   170.0213 H             1 RES     
     415 C           45.9289   146.6813   167.0116 C             1 RES     
     416 C           50.8535   143.4139   169.6108 C             1 RES     
     417 H           42.6851   146.8150   165.6270 H             1 RES     
     418 H           50.3882   136.1584   170.2088 H             1 RES     
     419 C           51.1177   140.4339   170.0584 C             1 RES     
     420 C           53.3798   144.7693   169.3247 C             1 RES     
     421 C           11.0893   142.9980   161.2515 C             1 RES     
     422 H           43.3698   145.3421   164.9831 H             1 RES     
     423 C           49.4419   136.3373   169.7426 C             1 RES     
     424 N           55.6118   139.2875   167.5687 N             1 RES     
     425 H           42.6844   145.3572   166.5903 H             1 RES     
     426 H           15.2785   141.3690   162.2300 H             1 RES     
     427 H           49.0032   145.9656   168.4888 H             1 RES     
     428 C           54.6689   148.2455   170.8180 C             1 RES     
     429 H           54.1460   144.1729   168.5333 H             1 RES     
     430 H           53.7561   144.9890   169.5779 H             1 RES     
     431 H           54.3877   148.6751   171.7568 H             1 RES     
     432 H           55.7354   148.1792   170.7613 H             1 RES     
     433 H           16.3191   139.9189   162.3005 H             1 RES     
     434 H           55.8366   139.9762   166.5582 H             1 RES     
     435 H           11.2128   142.8005   162.8610 H             1 RES     
     436 H           11.6716   143.5796   160.0000 H             1 RES     
     437 C           71.2846   139.2046   167.7885 C             1 RES     
     438 C           73.2229   140.6608   167.5117 C             1 RES     
     439 C           77.8881   140.6226   167.2354 C             1 RES     
     440 C           72.6550   135.7135   167.8062 C             1 RES     
     441 C           71.2101   137.1716   167.8157 C             1 RES     
     442 C           75.0693   139.2349   167.4766 C             1 RES     
     443 H           73.3461   141.7217   167.4485 H             1 RES     
     444 H           70.3836   140.3788   167.6961 H             1 RES     
     445 C           74.8552   137.0451   167.6047 C             1 RES     
     446 H           72.5262   134.6532   167.8697 H             1 RES     
     447 O           88.8980   134.7077   168.6388 O             1 RES     
     448 H           75.7597   136.4738   167.5808 H             1 RES     
     449 C           80.4258   139.2664   167.2168 C             1 RES     
     450 H           77.8797   141.1919   166.3296 H             1 RES     
     451 H           77.9797   141.1729   168.1484 H             1 RES     
     452 C           82.5441   140.6773   166.9546 C             1 RES     
     453 C           84.5034   136.2165   167.9822 C             1 RES     
     454 C           80.0823   136.2627   167.3340 C             1 RES     
     455 C           84.6027   139.3141   166.8615 C             1 RES     
     456 C           82.0885   135.1090   167.1560 C             1 RES     
     457 H           82.2019   133.8584   167.0713 H             1 RES     
     458 H           82.6408   141.7411   166.8929 H             1 RES     
     459 H           85.3978   138.9231   166.4312 H             1 RES     
     460 H           79.0907   135.8687   167.4139 H             1 RES     
     461 O           69.2886   136.4908   168.7808 O             1 RES     
     462 C           67.6269   137.9554   169.6424 C             1 RES     
     463 C           64.8050   137.1681   169.7311 C             1 RES     
     464 H           67.6789   138.4728   171.0166 H             1 RES     
     465 H           67.0747   138.2321   168.2059 H             1 RES     
     466 C           92.6358   140.1741   170.3337 C             1 RES     
     467 O           62.5214   138.6399   167.9919 O             1 RES     
     468 H           96.1092   141.3020   170.6097 H             1 RES     
     469 H           95.4658   141.4773   172.1123 H             1 RES     
     470 H           97.6767   130.1438   175.0880 H             1 RES     
     471 C           90.0005   135.7865   168.3107 C             1 RES     
     472 C           92.6420   134.2175   168.8555 C             1 RES     
     473 H           89.0738   136.7396   168.8138 H             1 RES     
     474 O           90.1995   136.2958   166.6738 O             1 RES     
     475 H           90.0984   136.7480   165.5871 H             1 RES     
     476 N           94.0806   135.2954   168.5818 N             1 RES     
     477 H           92.3320   133.8483   169.9457 H             1 RES     
     478 H           93.0006   133.2111   167.3035 H             1 RES     
     479 C           96.0929   134.7790   172.7210 C             1 RES     
     480 H           94.0417   136.5886   168.5148 H             1 RES     
     481 C           96.1647   137.1224   172.2517 C             1 RES     
     482 H           98.5919   129.8490   173.2593 H             1 RES     
     483 C           98.2746   133.1517   173.8046 C             1 RES     
     484 C           98.4778   138.9103   172.7949 C             1 RES     
     485 H          104.1036   142.5748   173.6891 H             1 RES     
     486 C           95.4394   140.8052   171.2802 C             1 RES     
     487 C          100.2916   137.3566   173.7796 C             1 RES     
     488 H           92.1341   141.0827   170.0738 H             1 RES     
     489 H           99.4011   130.1899   174.8100 H             1 RES     
     490 C          100.3914   134.3933   174.3787 C             1 RES     
     491 C          102.8777   138.5231   173.2768 C             1 RES     
     492 C           60.1550   139.1635   167.6941 C             1 RES     
     493 H           92.6840   139.5356   169.4766 H             1 RES     
     494 C           98.4421   130.4070   174.3881 C             1 RES     
     495 N          104.6472   132.8197   171.7100 N             1 RES     
     496 H           92.0978   139.6808   171.1162 H             1 RES     
     497 H           64.2826   137.3115   168.5269 H             1 RES     
     498 H           98.5443   139.9640   172.6210 H             1 RES     
     499 C          104.4723   141.9789   174.4977 C             1 RES     
     500 H          103.5558   137.8361   172.4786 H             1 RES     
     501 H          103.2816   138.7301   173.4958 H             1 RES     
     502 H          104.2754   142.4750   175.4251 H             1 RES     
     503 H          105.5271   141.8385   174.3853 H             1 RES     
     504 H           65.2310   135.8007   168.6206 H             1 RES     
     505 H          104.8550   133.4378   170.6513 H             1 RES     
     506 H           60.3612   139.0429   169.3028 H             1 RES     
     507 H           60.6977   139.6383   166.3813 H             1 RES     
     508 H          104.6228   131.4479   171.7837 H             1 RES     
     509 C          120.2681   131.7002   171.0572 C             1 RES     
     510 C          122.2754   133.0070   170.5909 C             1 RES     
     511 C          126.9040   132.6423   170.0566 C             1 RES     
     512 C          121.4118   128.1311   171.1945 C             1 RES     
     513 C          120.0659   129.6810   171.2028 C             1 RES     
     514 C          124.0218   131.4609   170.5328 C             1 RES     
     515 H          122.4619   134.0525   170.4613 H             1 RES     
     516 H          119.4399   132.9256   170.9494 H             1 RES     
     517 C          123.6765   129.3000   170.7957 C             1 RES     
     518 H          121.2197   127.0865   171.3247 H             1 RES     
     519 O          137.5783   126.0860   171.1726 O             1 RES     
     520 H          124.5397   128.6691   170.7534 H             1 RES     
     521 C          129.3444   131.1203   169.9725 C             1 RES     
     522 H          126.8780   133.1626   169.1221 H             1 RES     
     523 H          127.0846   133.2325   170.9307 H             1 RES     
     524 C          131.5290   132.3706   169.5133 C             1 RES     
     525 C          133.2576   127.8488   170.6789 C             1 RES     
     526 C          128.8177   128.1566   170.2775 C             1 RES     
     527 C          133.4873   130.8698   169.3820 C             1 RES     
     528 C          130.7322   126.8636   170.0528 C             1 RES     
     529 H          130.7603   125.6054   170.0324 H             1 RES     
     530 H          131.6894   133.4209   169.3864 H             1 RES     
     531 H          134.2289   130.4044   168.9305 H             1 RES     
     532 H          127.8095   127.8345   170.4348 H             1 RES     
     533 O          118.1657   129.1819   172.3106 O             1 RES     
     534 C          116.6550   130.7975   173.1800 C             1 RES     
     535 C          113.7989   130.2066   173.4706 C             1 RES     
     536 H          116.8215   131.3817   174.5179 H             1 RES     
     537 H          116.0371   131.0348   171.7634 H             1 RES     
     538 C          141.7512   131.3715   172.3456 C             1 RES     
     539 O          111.5143   131.7344   171.7818 O             1 RES     
     540 H          145.2997   132.2775   172.3630 H             1 RES     
     541 H          144.7593   132.5740   173.8869 H             1 RES     
     542 H          146.4164   121.2899   177.3672 H             1 RES     
     543 C          138.7259   127.0699   170.7232 C             1 RES     
     544 C          141.2897   125.3585   171.2069 C             1 RES     
     545 H          137.8935   128.1080   171.2229 H             1 RES     
     546 O          138.8593   127.4782   169.0516 O             1 RES     
     547 H          138.7227   127.8784   167.9486 H             1 RES     
     548 N          142.7753   126.3219   170.7929 N             1 RES     
     549 H          141.0222   125.0686   172.3317 H             1 RES     
     550 H          141.4905   124.2503   169.6963 H             1 RES     
     551 C          144.9932   125.8900   174.8356 C             1 RES     
     552 H          142.8150   127.6095   170.6555 H             1 RES     
     553 C          145.1863   128.1955   174.2318 C             1 RES     
     554 H          147.2005   120.8390   175.5098 H             1 RES     
     555 C          147.1274   124.1795   175.8852 C             1 RES     
     556 C          147.6369   129.8507   174.5434 C             1 RES     
     557 H          153.5280   133.1726   174.9139 H             1 RES     
     558 C          144.6407   131.8625   173.0967 C             1 RES     
     559 C          149.4032   128.2330   175.5109 C             1 RES     
     560 H          141.2939   132.2968   172.0634 H             1 RES     
     561 H          148.1206   121.2059   176.9911 H             1 RES     
     562 C          149.3495   125.3051   176.2692 C             1 RES     
     563 C          152.0239   129.1959   174.7994 C             1 RES     
     564 C          109.1727   132.3988   171.5879 C             1 RES     
     565 H          141.7075   130.6871   171.5243 H             1 RES     
     566 C          147.1540   121.4642   176.6120 C             1 RES     
     567 N          153.3299   123.3125   173.4595 N             1 RES     
     568 H          141.2304   130.9571   173.1834 H             1 RES     
     569 H          113.2161   130.3211   172.2913 H             1 RES     
     570 H          147.7598   130.8870   174.3070 H             1 RES     
     571 C          153.9054   132.5965   175.7328 C             1 RES     
     572 H          152.6082   128.4241   174.0045 H             1 RES     
     573 H          152.4525   129.3866   174.9835 H             1 RES     
     574 H          153.7961   133.1527   176.6404 H             1 RES     
     575 H          154.9406   132.3802   175.5696 H             1 RES     
     576 H          114.0701   128.7573   172.4167 H             1 RES     
     577 H          153.5133   123.8589   172.3577 H             1 RES     
     578 H          109.4661   132.3493   173.1867 H             1 RES     
     579 H          109.6655   132.7667   170.2221 H             1 RES     
     580 H          142.8133   124.5846   170.9631 H             1 RES     
     581 H          153.2225   121.9512   173.6115 H             1 RES     
     582 C          168.7811   121.1178   171.9980 C             1 RES     
     583 C          170.8364   122.2611   171.3474 C             1 RES     
     584 C          175.3922   121.5602   170.5764 C             1 RES     
     585 C          169.7011   117.4924   172.2718 C             1 RES     
     586 C          168.4596   119.1271   172.2681 C             1 RES     
     587 C          172.4741   120.6008   171.2788 C             1 RES     
     588 H          171.0811   123.2836   171.1489 H             1 RES     
     589 H          168.0278   122.3886   171.8679 H             1 RES     
     590 C          172.0080   118.4846   171.6817 C             1 RES     
     591 H          169.4509   116.4713   172.4711 H             1 RES     
     592 O          185.6744   114.3721   171.4608 O             1 RES     
     593 H          172.8251   117.7960   171.6268 H             1 RES     
     594 C          177.7214   119.8760   170.4417 C             1 RES     
     595 H          175.3439   122.0312   169.6170 H             1 RES     
     596 H          175.6618   122.1819   171.4044 H             1 RES     
     597 C          179.9500   120.9515   169.7914 C             1 RES     
     598 C          181.4531   116.3916   171.1111 C             1 RES     
     599 C          177.0259   116.9742   170.9420 C             1 RES     
     600 C          181.7974   119.3182   169.6355 C             1 RES     
     601 C          178.8373   115.5460   170.6837 C             1 RES     
     602 H          178.7839   114.2895   170.7325 H             1 RES     
     603 H          180.1692   121.9806   169.5969 H             1 RES     
     604 H          182.4796   118.7812   169.1701 H             1 RES     
     605 H          176.0103   116.7291   171.1733 H             1 RES     
     606 O          166.6008   118.8151   173.5068 O             1 RES     
     607 C          165.2506   120.5716   174.3670 C             1 RES     
     608 C          162.3849   120.1891   174.8497 C             1 RES     
     609 H          165.5333   121.2127   175.6585 H             1 RES     
     610 H          164.5658   120.7749   172.9760 H             1 RES     
     611 C          190.2381   119.4209   172.0992 C             1 RES     
     612 O          160.1060   121.7756   173.2080 O             1 RES     
     613 H          193.8318   120.0871   171.8671 H             1 RES     
     614 H          193.4031   120.4987   173.3998 H             1 RES     
     615 H          194.5416   109.3273   177.4114 H             1 RES     
     616 C          186.8535   115.2521   170.8932 C             1 RES     
     617 C          189.3273   113.4007   171.3283 C             1 RES     
     618 H          186.1202   116.3683   171.3795 H             1 RES     
     619 O          186.9130   115.5622   169.1965 O             1 RES     
     620 H          186.7369   115.9122   168.0821 H             1 RES     
     621 N          190.8440   114.2396   170.7783 N             1 RES     
     622 H          189.1092   113.1889   172.4808 H             1 RES     
     623 H          189.3668   112.2039   169.8736 H             1 RES     
     624 C          193.2665   113.8731   174.7085 C             1 RES     
     625 H          190.9575   115.5127   170.5667 H             1 RES     
     626 C          193.5698   116.1256   173.9661 C             1 RES     
     627 H          195.1834   108.7281   175.5413 H             1 RES     
     628 C          195.3459   112.0811   175.7317 C             1 RES     
     629 C          196.1351   117.6272   174.0465 C             1 RES     
     630 H          202.2377   120.5624   173.8994 H             1 RES     
     631 C          193.1925   119.7562   172.6588 C             1 RES     
     632 C          197.8492   115.9480   175.0032 C             1 RES     
     633 H          189.8247   120.3586   171.7915 H             1 RES     
     634 H          196.2116   109.1098   176.9458 H             1 RES     
     635 C          197.6541   113.0741   175.9269 C             1 RES     
     636 C          200.4790   116.6947   174.0932 C             1 RES     
     637 C          157.8041   122.5840   173.1083 C             1 RES     
     638 H          190.1021   118.6988   171.3215 H             1 RES     
     639 C          195.2425   109.4120   176.6075 C             1 RES     
     640 N          201.3252   110.6750   173.0154 N             1 RES     
     641 H          189.7427   119.0868   172.9869 H             1 RES     
     642 H          161.7414   120.2803   173.7003 H             1 RES     
     643 H          196.3096   118.6391   173.7457 H             1 RES     
     644 C          202.6256   120.0062   174.7271 C             1 RES     
     645 H          200.9645   115.8449   173.3115 H             1 RES     
     646 H          200.9291   116.8658   174.2420 H             1 RES     
     647 H          202.6061   120.6153   175.6066 H             1 RES     
     648 H          203.6333   119.7129   174.5187 H             1 RES     
     649 H          162.5000   118.6716   173.8655 H             1 RES     
     650 H          201.4772   111.1493   171.8762 H             1 RES     
     651 H          158.1883   122.5990   174.6884 H             1 RES     
     652 H          158.2372   122.8459   171.6986 H             1 RES     
     653 H          201.1405   109.3338   173.2496 H             1 RES     
     654 C          216.4908   107.3779   170.8179 C             1 RES     
     655 C          218.5723   108.3455   169.9900 C             1 RES     
     656 C          223.0203   107.3018   169.0061 C             1 RES     
     657 C          217.1924   103.7184   171.2433 C             1 RES     
     658 C          216.0596   105.4301   171.2171 C             1 RES     
     659 C          220.0939   106.5780   169.9235 C             1 RES     
     660 H          218.8695   109.3374   169.7209 H             1 RES     
     661 H          215.8135   108.6877   170.6588 H             1 RES     
     662 C          219.5186   104.5218   170.4703 C             1 RES     
     663 H          216.8899   102.7282   171.5135 H             1 RES     
     664 O          232.8576    99.4984   169.7170 O             1 RES     
     665 H          220.2855   103.7781   170.4086 H             1 RES     
     666 C          225.2252   105.4608   168.8363 C             1 RES     
     667 H          222.9451   107.7241   168.0259 H             1 RES     
     668 H          223.3778   107.9468   169.7815 H             1 RES     
     669 C          227.4752   106.3493   168.0029 C             1 RES     
     670 C          228.7604   101.7746   169.4910 C             1 RES     
     671 C          224.3771   102.6424   169.5372 C             1 RES     
     672 C          229.2022   104.5901   167.8360 C             1 RES     
     673 C          226.0752   101.0846   169.2588 C             1 RES     
     674 H          225.9448    99.8388   169.3811 H             1 RES     
     675 H          227.7476   107.3497   167.7388 H             1 RES     
     676 H          229.8198   103.9850   167.3642 H             1 RES     
     677 H          223.3636   102.4782   169.8384 H             1 RES     
     678 O          214.2617   105.3086   172.5734 O             1 RES     
     679 C          213.0797   107.1942   173.4076 C             1 RES     
     680 C          210.2294   107.0301   174.0706 C             1 RES     
     681 H          213.4791   107.8819   174.6432 H             1 RES     
     682 H          212.3278   107.3696   172.0479 H             1 RES     
     683 C          237.7638   104.2571   169.8141 C             1 RES     
     684 O          207.9626   108.6771   172.4723 O             1 RES     
     685 H          241.3725   104.6683   169.3443 H             1 RES     
     686 H          241.0628   105.1876   170.8729 H             1 RES     
     687 H          241.7235    94.1910   175.4368 H             1 RES     
     688 C          234.0546   100.2665   169.0358 C             1 RES     
     689 C          236.4268    98.2792   169.4353 C             1 RES     
     690 H          233.4242   101.4533   169.4988 H             1 RES     
     691 O          234.0327   100.4825   167.3237 O             1 RES     
     692 H          233.8133   100.7845   166.2029 H             1 RES     
     693 N          237.9585    98.9847   168.7550 N             1 RES     
     694 H          236.2647    98.1432   170.6083 H             1 RES     
     695 H          236.3033    97.0077   168.0503 H             1 RES     
     696 C          240.5822    98.6637   172.5579 C             1 RES     
     697 H          238.1402   100.2345   168.4661 H             1 RES     
     698 C          240.9839   100.8488   171.6742 C             1 RES     
     699 H          242.2135    93.4528   173.5704 H             1 RES     
     700 C          242.6004    96.7929   173.5624 C             1 RES     
     701 C          243.6399   102.1776   171.5263 C             1 RES     
     702 H          249.8975   104.6863   170.8732 H             1 RES     
     703 C          240.7617   104.4230   170.1878 C             1 RES     
     704 C          245.2973   100.4401   172.4786 C             1 RES     
     705 H          237.3935   105.2029   169.4777 H             1 RES     
     706 H          243.3456    93.8382   174.8915 H             1 RES     
     707 C          244.9747    97.6381   173.5721 C             1 RES     
     708 C          247.9105   100.9604   171.3824 C             1 RES     
     709 C          205.7150   109.6314   172.4561 C             1 RES     
     710 H          237.5360   103.5059   169.0871 H             1 RES     
     711 C          242.3794    94.1863   174.5914 C             1 RES     
     712 N          248.3057    94.8493   170.5994 N             1 RES     
     713 H          237.3018   104.0040   170.7455 H             1 RES     
     714 H          209.5257   107.1037   172.9557 H             1 RES     
     715 H          243.8604   103.1584   171.1598 H             1 RES     
     716 C          250.2978   104.1496   171.7079 C             1 RES     
     717 H          248.2936   100.0402   170.6238 H             1 RES     
     718 H          248.3787   101.1086   171.4959 H             1 RES     
     719 H          250.3695   104.8040   172.5515 H             1 RES     
     720 H          251.2706   103.7789   171.4603 H             1 RES     
     721 H          210.1887   105.4588   173.1684 H             1 RES     
     722 H          248.4196    95.2520   169.4286 H             1 RES     
     723 H          206.1928   109.7035   174.0090 H             1 RES     
     724 H          206.0793   109.7894   171.0119 H             1 RES     
     725 H          237.8018    97.2845   169.1200 H             1 RES     
     726 H          248.0501    93.5376   170.9186 H             1 RES     
     727 H           10.0000   142.9597   161.1579 H             1 RES     
     728 H          249.3339    94.5214   170.4203 H             1 RES     
     729 C           22.1685   143.7431   312.0099 C             1 RES     
     730 C           24.0175   145.3332   311.9257 C             1 RES     
     731 C           28.6829   145.6081   311.9258 C             1 RES     
     732 C           23.7662   140.3511   311.9258 C             1 RES     
     733 C           22.2287   141.7112   311.9258 C             1 RES     
     734 C           25.9542   144.0322   311.9257 C             1 RES     
     735 H           24.0727   146.4017   311.9257 H             1 RES     
     736 H           21.1975   144.8609   311.9258 H             1 RES     
     737 C           25.8802   141.8294   311.9257 C             1 RES     
     738 H           23.7053   139.2828   311.9258 H             1 RES     
     739 O           39.9680   140.3375   313.6693 O             1 RES     
     740 H           26.8208   141.3192   311.9257 H             1 RES     
     741 C           31.3027   144.4196   311.9871 C             1 RES     
     742 H           28.6871   146.2258   311.0522 H             1 RES     
     743 H           28.6863   146.1109   312.8703 H             1 RES     
     744 C           33.3332   145.9752   311.9258 C             1 RES     
     745 C           35.5260   141.5976   312.8325 C             1 RES     
     746 C           31.1549   141.3983   311.9258 C             1 RES     
     747 C           35.4804   144.7534   311.8839 C             1 RES     
     748 C           33.2406   140.3867   311.8072 C             1 RES     
     749 H           33.4419   139.1526   311.6638 H             1 RES     
     750 H           33.3618   147.0448   311.9258 H             1 RES     
     751 H           36.3227   144.4387   311.4817 H             1 RES     
     752 H           30.1889   140.9380   311.9258 H             1 RES     
     753 O           20.3061   140.8561   312.7378 O             1 RES     
     754 C           18.5046   142.1610   313.5747 C             1 RES     
     755 C           15.7411   141.1917   313.4540 C             1 RES     
     756 H           18.4449   142.6025   314.9749 H             1 RES     
     757 H           18.0163   142.4823   312.1244 H             1 RES     
     758 C           43.2311   145.9270   315.8682 C             1 RES     
     759 O           13.4650   142.6104   311.6616 O             1 RES     
     760 H           46.6004   147.2567   316.4092 H             1 RES     
     761 H           45.8637   147.3058   317.8779 H             1 RES     
     762 H           48.6579   135.9869   320.3809 H             1 RES     
     763 C           41.0125   141.5011   313.4645 C             1 RES     
     764 C           43.7184   140.0755   314.0824 C             1 RES     
     765 H           39.9975   142.3634   313.9609 H             1 RES     
     766 O           41.2683   142.1134   311.8713 O             1 RES     
     767 H           41.1981   142.6186   310.8058 H             1 RES     
     768 N           45.0948   141.2567   313.9517 N             1 RES     
     769 H           43.3733   139.6266   315.1313 H             1 RES     
     770 H           44.2298   139.1830   312.5038 H             1 RES     
     771 C           46.9024   140.6375   318.1705 C             1 RES     
     772 H           44.9733   142.5465   313.9505 H             1 RES     
     773 C           46.8435   143.0034   317.8299 C             1 RES     
     774 H           49.6916   135.8544   318.5970 H             1 RES     
     775 C           49.1241   139.0942   319.2950 C             1 RES     
     776 C           48.9978   144.9017   318.6029 C             1 RES     
     777 H           54.3070   148.8613   320.0213 H             1 RES     
     778 C           45.9289   146.6813   317.0116 C             1 RES     
     779 C           50.8535   143.4139   319.6108 C             1 RES     
     780 H           42.6851   146.8150   315.6270 H             1 RES     
     781 H           50.3882   136.1584   320.2088 H             1 RES     
     782 C           51.1177   140.4339   320.0584 C             1 RES     
     783 C           53.3798   144.7693   319.3247 C             1 RES     
     784 C           11.0893   142.9980   311.2515 C             1 RES     
     785 H           43.3698   145.3421   314.9831 H             1 RES     
     786 C           49.4419   136.3373   319.7426 C             1 RES     
     787 N           55.6118   139.2875   317.5687 N             1 RES     
     788 H           42.6844   145.3572   316.5903 H             1 RES     
     789 H           15.2785   141.3690   312.2300 H             1 RES     
     790 H           49.0032   145.9656   318.4888 H             1 RES     
     791 C           54.6689   148.2455   320.8180 C             1 RES     
     792 H           54.1460   144.1729   318.5333 H             1 RES     
     793 H           53.7561   144.9890   319.5779 H             1 RES     
     794 H           54.3877   148.6751   321.7568 H             1 RES     
     795 H           55.7354   148.1792   320.7613 H             1 RES     
     796 H           16.3191   139.9189   312.3005 H             1 RES     
     797 H           55.8366   139.9762   316.5582 H             1 RES     
     798 H           11.2128   142.8005   312.8610 H             1 RES     
     799 H           11.6716   143.5796   310.0000 H             1 RES     
     800 C           71.2846   139.2046   317.7885 C             1 RES     
     801 C           73.2229   140.6608   317.5117 C             1 RES     
     802 C           77.8881   140.6226   317.2354 C             1 RES     
     803 C           72.6550   135.7135   317.8062 C             1 RES     
     804 C           71.2101   137.1716   317.8157 C             1 RES     
     805 C           75.0693   139.2349   317.4766 C             1 RES     
     806 H           73.3461   141.7217   317.4485 H             1 RES     
     807 H           70.3836   140.3788   317.6961 H             1 RES     
     808 C           74.8552   137.0451   317.6047 C             1 RES     
     809 H           72.5262   134.6532   317.8697 H             1 RES     
     810 O           88.8980   134.7077   318.6388 O             1 RES     
     811 H           75.7597   136.4738   317.5808 H             1 RES     
     812 C           80.4258   139.2664   317.2168 C             1 RES     
     813 H           77.8797   141.1919   316.3296 H             1 RES     
     814 H           77.9797   141.1729   318.1484 H             1 RES     
     815 C           82.5441   140.6773   316.9546 C             1 RES     
     816 C           84.5034   136.2165   317.9822 C             1 RES     
     817 C           80.0823   136.2627   317.3340 C             1 RES     
     818 C           84.6027   139.3141   316.8615 C             1 RES     
     819 C           82.0885   135.1090   317.1560 C             1 RES     
     820 H           82.2019   133.8584   317.0713 H             1 RES     
     821 H           82.6408   141.7411   316.8929 H             1 RES     
     822 H           85.3978   138.9231   316.4312 H             1 RES     
     823 H           79.0907   135.8687   317.4139 H             1 RES     
     824 O           69.2886   136.4908   318.7808 O             1 RES     
     825 C           67.6269   137.9554   319.6424 C             1 RES     
     826 C           64.8050   137.1681   319.7311 C             1 RES     
     827 H           67.6789   138.4728   321.0166 H             1 RES     
     828 H           67.0747   138.2321   318.2059 H             1 RES     
     829 C           92.6358   140.1741   320.3337 C             1 RES     
     830 O           62.5214   138.6399   317.9919 O             1 RES     
     831 H           96.1092   141.3020   320.6097 H             1 RES     
     832 H           95.4658   141.4773   322.1123 H             1 RES     
     833 H           97.6767   130.1438   325.0880 H             1 RES     
     834 C           90.0005   135.7865   318.3107 C             1 RES     
     835 C           92.6420   134.2175   318.8555 C             1 RES     
     836 H           89.0738   136.7396   318.8138 H             1 RES     
     837 O           90.1995   136.2958   316.6738 O             1 RES     
     838 H           90.0984   136.7480   315.5871 H             1 RES     
     839 N           94.0806   135.2954   318.5818 N             1 RES     
     840 H           92.3320   133.8483   319.9457 H             1 RES     
     841 H           93.0006   133.2111   317.3035 H             1 RES     
     842 C           96.0929   134.7790   322.7210 C             1 RES     
     843 H           94.0417   136.5886   318.5148 H             1 RES     
     844 C           96.1647   137.1224   322.2517 C             1 RES     
     845 H           98.5919   129.8490   323.2593 H             1 RES     
     846 C           98.2746   133.1517   323.8046 C             1 RES     
     847 C           98.4778   138.9103   322.7949 C             1 RES     
     848 H          104.1036   142.5748   323.6891 H             1 RES     
     849 C           95.4394   140.8052   321.2802 C             1 RES     
     850 C          100.2916   137.3566   323.7796 C             1 RES     
     851 H           92.1341   141.0827   320.0738 H             1 RES     
     852 H           99.4011   130.1899   324.8100 H             1 RES     
     853 C          100.3914   134.3933   324.3787 C             1 RES     
     854 C          102.8777   138.5231   323.2768 C             1 RES     
     855 C           60.1550   139.1635   317.6941 C             1 RES     
     856 H           92.6840   139.5356   319.4766 H             1 RES     
     857 C           98.4421   130.4070   324.3881 C             1 RES     
     858 N          104.6472   132.8197   321.7100 N             1 RES     
     859 H           92.0978   139.6808   321.1162 H             1 RES     
     860 H           64.2826   137.3115   318.5269 H             1 RES     
     861 H           98.5443   139.9640   322.6210 H             1 RES     
     862 C          104.4723   141.9789   324.4977 C             1 RES     
     863 H          103.5558   137.8361   322.4786 H             1 RES     
     864 H          103.2816   138.7301   323.4958 H             1 RES     
     865 H          104.2754   142.4750   325.4251 H             1 RES     
     866 H          105.5271   141.8385   324.3853 H             1 RES     
     867 H           65.2310   135.8007   318.6206 H             1 RES     
     868 H          104.8550   133.4378   320.6513 H             1 RES     
     869 H           60.3612   139.0429   319.3028 H             1 RES     
     870 H           60.6977   139.6383   316.3813 H             1 RES     
     871 H           94.2251   133.5573   318.6626 H             1 RES     
     872 H          104.6228   131.4479   321.7837 H             1 RES     
     873 C          120.2681   131.7002   321.0572 C             1 RES     
     874 C          122.2754   133.0070   320.5909 C             1 RES     
     875 C          126.9040   132.6423   320.0566 C             1 RES     
     876 C          121.4118   128.1311   321.1945 C             1 RES     
     877 C          120.0659   129.6810   321.2028 C             1 RES     
     878 C          124.0218   131.4609   320.5328 C             1 RES     
     879 H          122.4619   134.0525   320.4613 H             1 RES     
     880 H          119.4399   132.9256   320.9494 H             1 RES     
     881 C          123.6765   129.3000   320.7957 C             1 RES     
     882 H          121.2197   127.0865   321.3247 H             1 RES     
     883 O          137.5783   126.0860   321.1726 O             1 RES     
     884 H          124.5397   128.6691   320.7534 H             1 RES     
     885 C          129.3444   131.1203   319.9725 C             1 RES     
     886 H          126.8780   133.1626   319.1221 H             1 RES     
     887 H          127.0846   133.2325   320.9307 H             1 RES     
     888 C          131.5290   132.3706   319.5133 C             1 RES     
     889 C          133.2576   127.8488   320.6789 C             1 RES     
     890 C          128.8177   128.1566   320.2775 C             1 RES     
     891 C          133.4873   130.8698   319.3820 C             1 RES     
     892 C          130.7322   126.8636   320.0528 C             1 RES     
     893 H          130.7603   125.6054   320.0324 H             1 RES     
     894 H          131.6894   133.4209   319.3864 H             1 RES     
     895 H          134.2289   130.4044   318.9305 H             1 RES     
     896 H          127.8095   127.8345   320.4348 H             1 RES     
     897 O          118.1657   129.1819   322.3106 O             1 RES     
     898 C          116.6550   130.7975   323.1800 C             1 RES     
     899 C          113.7989   130.2066   323.4706 C             1 RES     
     900 H          116.8215   131.3817   324.5179 H             1 RES     
     901 H          116.0371   131.0348   321.7634 H             1 RES     
     902 C          141.7512   131.3715   322.3456 C             1 RES     
     903 O          111.5143   131.7344   321.7818 O             1 RES     
     904 H          145.2997   132.2775   322.3630 H             1 RES     
     905 H          144.7593   132.5740   323.8869 H             1 RES     
     906 H          146.4164   121.2899   327.3672 H             1 RES     
     907 C          138.7259   127.0699   320.7232 C             1 RES     
     908 C          141.2897   125.3585   321.2069 C             1 RES     
     909 H          137.8935   128.1080   321.2229 H             1 RES     
     910 O          138.8593   127.4782   319.0516 O             1 RES     
     911 H          138.7227   127.8784   317.9486 H             1 RES     
     912 N          142.7753   126.3219   320.7929 N             1 RES     
     913 H          141.0222   125.0686   322.3317 H             1 RES     
     914 H          141.4905   124.2503   319.6963 H             1 RES     
     915 C          144.9932   125.8900   324.8356 C             1 RES     
     916 H          142.8150   127.6095   320.6555 H             1 RES     
     917 C          145.1863   128.1955   324.2318 C             1 RES     
     918 H          147.2005   120.8390   325.5098 H             1 RES     
     919 C          147.1274   124.1795   325.8852 C             1 RES     
     920 C          147.6369   129.8507   324.5434 C             1 RES     
     921 H          153.5280   133.1726   324.9139 H             1 RES     
     922 C          144.6407   131.8625   323.0967 C             1 RES     
     923 C          149.4032   128.2330   325.5109 C             1 RES     
     924 H          141.2939   132.2968   322.0634 H             1 RES     
     925 H          148.1206   121.2059   326.9911 H             1 RES     
     926 C          149.3495   125.3051   326.2692 C             1 RES     
     927 C          152.0239   129.1959   324.7994 C             1 RES     
     928 C          109.1727   132.3988   321.5879 C             1 RES     
     929 H          141.7075   130.6871   321.5243 H             1 RES     
     930 C          147.1540   121.4642   326.6120 C             1 RES     
     931 N          153.3299   123.3125   323.4595 N             1 RES     
     932 H          141.2304   130.9571   323.1834 H             1 RES     
     933 H          113.2161   130.3211   322.2913 H             1 RES     
     934 H          147.7598   130.8870   324.3070 H             1 RES     
     935 C          153.9054   132.5965   325.7328 C             1 RES     
     936 H          152.6082   128.4241   324.0045 H             1 RES     
     937 H          152.4525   129.3866   324.9835 H             1 RES     
     938 H          153.7961   133.1527   326.6404 H             1 RES     
     939 H          154.9406   132.3802   325.5696 H             1 RES     
     940 H          114.0701   128.7573   322.4167 H             1 RES     
     941 H          153.5133   123.8589   322.3577 H             1 RES     
     942 H          109.4661   132.3493   323.1867 H             1 RES     
     943 H          109.6655   132.7667   320.2221 H             1 RES     
     944 H          142.8133   124.5846   320.9631 H             1 RES     
     945 H          153.2225   121.9512   323.6115 H             1 RES     
     946 C          168.7811   121.1178   321.9980 C             1 RES     
     947 C          170.8364   122.2611   321.3474 C             1 RES     
     948 C          175.3922   121.5602   320.5764 C             1 RES     
     949 C          169.7011   117.4924   322.2718 C             1 RES     
     950 C          168.4596   119.1271   322.2681 C             1 RES     
     951 C          172.4741   120.6008   321.2788 C             1 RES     
     952 H          171.0811   123.2836   321.1489 H             1 RES     
     953 H          168.0278   122.3886   321.8679 H             1 RES     
     954 C          172.0080   118.4846   321.6817 C             1 RES     
     955 H          169.4509   116.4713   322.4711 H             1 RES     
     956 O          185.6744   114.3721   321.4608 O             1 RES     
     957 H          172.8251   117.7960   321.6268 H             1 RES     
     958 C          177.7214   119.8760   320.4417 C             1 RES     
     959 H          175.3439   122.0312   319.6170 H             1 RES     
     960 H          175.6618   122.1819   321.4044 H             1 RES     
     961 C          179.9500   120.9515   319.7914 C             1 RES     
     962 C          181.4531   116.3916   321.1111 C             1 RES     
     963 C          177.0259   116.9742   320.9420 C             1 RES     
     964 C          181.7974   119.3182   319.6355 C             1 RES     
     965 C          178.8373   115.5460   320.6837 C             1 RES     
     966 H          178.7839   114.2895   320.7325 H             1 RES     
     967 H          180.1692   121.9806   319.5969 H             1 RES     
     968 H          182.4796   118.7812   319.1701 H             1 RES     
     969 H          176.0103   116.7291   321.1733 H             1 RES     
     970 O          166.6008   118.8151   323.5068 O             1 RES     
     971 C          165.2506   120.5716   324.3670 C             1 RES     
     972 C          162.3849   120.1891   324.8497 C             1 RES     
     973 H          165.5333   121.2127   325.6585 H             1 RES     
     974 H          164.5658   120.7749   322.9760 H             1 RES     
     975 C          190.2381   119.4209   322.0992 C             1 RES     
     976 O          160.1060   121.7756   323.2080 O             1 RES     
     977 H          193.8318   120.0871   321.8671 H             1 RES     
     978 H          193.4031   120.4987   323.3998 H             1 RES     
     979 H          194.5416   109.3273   327.4114 H             1 RES     
     980 C          186.8535   115.2521   320.8932 C             1 RES     
     981 C          189.3273   113.4007   321.3283 C             1 RES     
     982 H          186.1202   116.3683   321.3795 H             1 RES     
     983 O          186.9130   115.5622   319.1965 O             1 RES     
     984 H          186.7369   115.9122   318.0821 H             1 RES     
     985 N          190.8440   114.2396   320.7783 N             1 RES     
     986 H          189.1092   113.1889   322.4808 H             1 RES     
     987 H          189.3668   112.2039   319.8736 H             1 RES     
     988 C          193.2665   113.8731   324.7085 C             1 RES     
     989 H          190.9575   115.5127   320.5667 H             1 RES     
     990 C          193.5698   116.1256   323.9661 C             1 RES     
     991 H          195.1834   108.7281   325.5413 H             1 RES     
     992 C          195.3459   112.0811   325.7317 C             1 RES     
     993 C          196.1351   117.6272   324.0465 C             1 RES     
     994 H          202.2377   120.5624   323.8994 H             1 RES     
     995 C          193.1925   119.7562   322.6588 C             1 RES     
     996 C          197.8492   115.9480   325.0032 C             1 RES     
     997 H          189.8247   120.3586   321.7915 H             1 RES     
     998 H          196.2116   109.1098   326.9458 H             1 RES     
     999 C          197.6541   113.0741   325.9269 C             1 RES     
    1000 C          200.4790   116.6947   324.0932 C             1 RES     
    1001 C          157.8041   122.5840   323.1083 C             1 RES     
    1002 H          190.1021   118.6988   321.3215 H             1 RES     
    1003 C          195.2425   109.4120   326.6075 C             1 RES     
    1004 N          201.3252   110.6750   323.0154 N             1 RES     
    1005 H          189.7427   119.0868   322.9869 H             1 RES     
    1006 H          161.7414   120.2803   323.7003 H             1 RES     
    1007 H          196.3096   118.6391   323.7457 H             1 RES     
    1008 C          202.6256   120.0062   324.7271 C             1 RES     
    1009 H          200.9645   115.8449   323.3115 H             1 RES     
    1010 H          200.9291   116.8658   324.2420 H             1 RES     
    1011 H          202.6061   120.6153   325.6066 H             1 RES     
    1012 H          203.6333   119.7129   324.5187 H             1 RES     
    1013 H          162.5000   118.6716   323.8655 H             1 RES     
    1014 H          201.4772   111.1493   321.8762 H             1 RES     
    1015 H          158.1883   122.5990   324.6884 H             1 RES     
    1016 H          158.2372   122.8459   321.6986 H             1 RES     
    1017 H          190.7812   112.5150   321.0436 H             1 RES     
    1018 H          201.1405   109.3338   323.2496 H             1 RES     
    1019 C          216.4908   107.3779   320.8179 C             1 RES     
    1020 C          218.5723   108.3455   319.9900 C             1 RES     
    1021 C          223.0203   107.3018   319.0061 C             1 RES     
    1022 C          217.1924   103.7184   321.2433 C             1 RES     
    1023 C          216.0596   105.4301   321.2171 C             1 RES     
    1024 C          220.0939   106.5780   319.9235 C             1 RES     
    1025 H          218.8695   109.3374   319.7209 H             1 RES     
    1026 H          215.8135   108.6877   320.6588 H             1 RES     
    1027 C          219.5186   104.5218   320.4703 C             1 RES     
    1028 H          216.8899   102.7282   321.5135 H             1 RES     
    1029 O          232.8576    99.4984   319.7170 O             1 RES     
    1030 H          220.2855   103.7781   320.4086 H             1 RES     
    1031 C          225.2252   105.4608   318.8363 C             1 RES     
    1032 H          222.9451   107.7241   318.0259 H             1 RES     
    1033 H          223.3778   107.9468   319.7815 H             1 RES     
    1034 C          227.4752   106.3493   318.0029 C             1 RES     
    1035 C          228.7604   101.7746   319.4910 C             1 RES     
    1036 C          224.3771   102.6424   319.5372 C             1 RES     
    1037 C          229.2022   104.5901   317.8360 C             1 RES     
    1038 C          226.0752   101.0846   319.2588 C             1 RES     
    1039 H          225.9448    99.8388   319.3811 H             1 RES     
    1040 H          227.7476   107.3497   317.7388 H             1 RES     
    1041 H          229.8198   103.9850   317.3642 H             1 RES     
    1042 H          223.3636   102.4782   319.8384 H             1 RES     
    1043 O          214.2617   105.3086   322.5734 O             1 RES     
    1044 C          213.0797   107.1942   323.4076 C             1 RES     
    1045 C          210.2294   107.0301   324.0706 C             1 RES     
    1046 H          213.4791   107.8819   324.6432 H             1 RES     
    1047 H          212.3278   107.3696   322.0479 H             1 RES     
    1048 C          237.7638   104.2571   319.8141 C             1 RES     
    1049 O          207.9626   108.6771   322.4723 O             1 RES     
    1050 H          241.3725   104.6683   319.3443 H             1 RES     
    1051 H          241.0628   105.1876   320.8729 H             1 RES     
    1052 H          241.7235    94.1910   325.4368 H             1 RES     
    1053 C          234.0546   100.2665   319.0358 C             1 RES     
    1054 C          236.4268    98.2792   319.4353 C             1 RES     
    1055 H          233.4242   101.4533   319.4988 H             1 RES     
    1056 O          234.0327   100.4825   317.3237 O             1 RES     
    1057 H          233.8133   100.7845   316.2029 H             1 RES     
    1058 N          237.9585    98.9847   318.7550 N             1 RES     
    1059 H          236.2647    98.1432   320.6083 H             1 RES     
    1060 H          236.3033    97.0077   318.0503 H             1 RES     
    1061 C          240.5822    98.6637   322.5579 C             1 RES     
    1062 H          238.1402   100.2345   318.4661 H             1 RES     
    1063 C          240.9839   100.8488   321.6742 C             1 RES     
    1064 H          242.2135    93.4528   323.5704 H             1 RES     
    1065 C          242.6004    96.7929   323.5624 C             1 RES     
    1066 C          243.6399   102.1776   321.5263 C             1 RES     
    1067 H          249.8975   104.6863   320.8732 H             1 RES     
    1068 C          240.7617   104.4230   320.1878 C             1 RES     
    1069 C          245.2973   100.4401   322.4786 C             1 RES     
    1070 H          237.3935   105.2029   319.4777 H             1 RES     
    1071 H          243.3456    93.8382   324.8915 H             1 RES     
    1072 C          244.9747    97.6381   323.5721 C             1 RES     
    1073 C          247.9105   100.9604   321.3824 C             1 RES     
    1074 C          205.7150   109.6314   322.4561 C             1 RES     
    1075 H          237.5360   103.5059   319.0871 H             1 RES     
    1076 C          242.3794    94.1863   324.5914 C             1 RES     
    1077 N          248.3057    94.8493   320.5994 N             1 RES     
    1078 H          237.3018   104.0040   320.7455 H             1 RES     
    1079 H          209.5257   107.1037   322.9557 H             1 RES     
    1080 H          243.8604   103.1584   321.1598 H             1 RES     
    1081 C          250.2978   104.1496   321.7079 C             1 RES     
    1082 H          248.2936   100.0402   320.6238 H             1 RES     
    1083 H          248.3787   101.1086   321.4959 H             1 RES     
    1084 H          250.3695   104.8040   322.5515 H             1 RES     
    1085 H          251.2706   103.7789   321.4603 H             1 RES     
    1086 H          210.1887   105.4588   323.1684 H             1 RES     
    1087 H          248.4196    95.2520   319.4286 H             1 RES     
    1088 H          206.1928   109.7035   324.0090 H             1 RES     
    1089 H          206.0793   109.7894   321.0119 H             1 RES     
    1090 H          237.8018    97.2845   319.1200 H             1 RES     
    1091 H          248.0501    93.5376   320.9186 H             1 RES     
    1092 H           10.0000   142.9597   311.1579 H             1 RES     
    1093 H          249.3339    94.5214   320.4203 H             1 RES     
    1094 C           53.7366   133.1079    69.6571 C             1 RES     
    1095 C           55.7359   134.2881    68.9059 C             1 RES     
    1096 C           60.3323   133.7605    68.2451 C             1 RES     
    1097 C           54.8455   129.5859    70.3134 C             1 RES     
    1098 C           53.5185   131.1413    70.1305 C             1 RES     
    1099 C           57.4608   132.7213    69.0224 C             1 RES     
    1100 H           55.9282   135.2963    68.6039 H             1 RES     
    1101 H           52.9181   134.3154    69.3899 H             1 RES     
    1102 C           57.1034   130.6360    69.6400 C             1 RES     
    1103 H           54.6477   128.5788    70.6161 H             1 RES     
    1104 O           69.5440   127.3895    70.8605 O             1 RES     
    1105 H           57.9569   129.9910    69.6630 H             1 RES     
    1106 C           62.7497   132.2009    68.3033 C             1 RES     
    1107 H           60.2712   134.1264    67.2416 H             1 RES     
    1108 H           60.5576   134.4784    69.0059 H             1 RES     
    1109 C           64.9258   133.3232    67.5607 C             1 RES     
    1110 C           66.6535   129.0133    69.3588 C             1 RES     
    1111 C           62.2040   129.3330    69.0979 C             1 RES     
    1112 C           66.8598   131.7857    67.5891 C             1 RES     
    1113 C           64.0923   127.9866    69.0028 C             1 RES     
    1114 H           64.1056   126.7408    69.1817 H             1 RES     
    1115 H           65.0922   134.3370    67.2618 H             1 RES     
    1116 H           67.5756   131.2414    67.1871 H             1 RES     
    1117 H           61.2001   129.0581    69.3461 H             1 RES     
    1118 O           50.6786   130.3019    70.8491 O             1 RES     
    1119 C           49.1702   131.6366    70.7567 C             1 RES     
    1120 H           47.0458   129.9668    71.9370 H             1 RES     
    1121 H           49.1946   133.8850    68.6298 H             1 RES     
    1122 C           71.3397   128.7361    70.7475 C             1 RES     
    1123 H           70.6547   131.0098    69.5780 H             1 RES     
    1124 H           74.3086   127.2467    71.2236 H             1 RES     
    1125 O           71.5029   130.7338    69.9050 O             1 RES     
    1126 H           49.3478   132.3088    71.5701 H             1 RES     
    1127 H           46.9636   129.7604    70.2039 H             1 RES     
    1128 O           49.3179   133.9946    69.5654 O             1 RES     
    1129 C           73.4699   127.2368    71.8879 C             1 RES     
    1130 H           71.2168   129.7519    70.4346 H             1 RES     
    1131 H           73.1514   126.2275    72.0452 H             1 RES     
    1132 H           83.5555   124.0647    78.3514 H             1 RES     
    1133 H           87.5937   126.8837    82.7839 H             1 RES     
    1134 H           75.2435   128.6721    81.6288 H             1 RES     
    1135 C           79.8589   123.4907    75.6513 C             1 RES     
    1136 C           80.8484   119.9725    74.0330 C             1 RES     
    1137 C           76.1155   129.0642    82.1091 C             1 RES     
    1138 N           75.5955   127.9145    75.0447 N             1 RES     
    1139 C           87.9967   126.9934    81.7988 C             1 RES     
    1140 H           87.9106   128.0141    81.4898 H             1 RES     
    1141 C           77.8378   125.9970    79.4042 C             1 RES     
    1142 H           85.5319   130.3022    80.7417 H             1 RES     
    1143 H           86.7463   125.2212    78.8477 H             1 RES     
    1144 C           86.4643   125.2260    79.8799 C             1 RES     
    1145 H           89.0277   126.7073    81.8012 H             1 RES     
    1146 C           80.2405   124.5152    78.3170 C             1 RES     
    1147 H           81.8353   120.2524    73.7285 H             1 RES     
    1148 C           83.0440   126.7597    80.8710 C             1 RES     
    1149 N           84.5740   131.0896    81.1170 N             1 RES     
    1150 C           78.3952   127.7304    81.1468 C             1 RES     
    1151 C           81.2292   127.9710    81.8489 C             1 RES     
    1152 H           86.5441   124.1834    80.1064 H             1 RES     
    1153 C           82.7751   124.6442    78.7987 C             1 RES     
    1154 H           76.1527   130.2028    81.5521 H             1 RES     
    1155 H           76.0366   128.9184    83.1661 H             1 RES     
    1156 H           79.6821   123.1009    75.3853 H             1 RES     
    1157 H           80.8850   119.0302    74.5387 H             1 RES     
    1158 H           76.3931   128.2205    74.1413 H             1 RES     
    1159 H           80.2191   119.8906    73.1714 H             1 RES     
    1160 H           79.3647   124.3489    74.8844 H             1 RES     
    1161 H           83.4673   132.0861    81.6903 H             1 RES     
    1162 H           74.3019   128.9856    75.5633 H             1 RES     
    1163 C           91.3018   137.1658    86.6924 C             1 RES     
    1164 C           92.6177   139.1845    87.0766 C             1 RES     
    1165 C           96.8394   140.6651    88.4281 C             1 RES     
    1166 C           93.6717   134.3115    87.2417 C             1 RES     
    1167 C           91.9062   135.2234    86.7269 C             1 RES     
    1168 C           94.7353   138.4336    87.7053 C             1 RES     
    1169 H           92.3928   140.2299    87.0416 H             1 RES     
    1170 H           90.1448   137.9942    86.2746 H             1 RES     
    1171 C           95.2355   136.2887    87.7891 C             1 RES     
    1172 H           93.8913   133.2648    87.2750 H             1 RES     
    1173 O          106.5504   137.7292    93.8468 O             1 RES     
    1174 H           96.2326   136.0414    88.0886 H             1 RES     
    1175 C           99.5385   140.1987    89.3097 C             1 RES     
    1176 H           96.9414   141.2897    87.5654 H             1 RES     
    1177 H           96.4345   141.1215    89.3071 H             1 RES     
    1178 C          101.0235   142.2307    89.7706 C             1 RES     
    1179 C          103.9033   138.5492    91.4874 C             1 RES     
    1180 C          100.2000   137.2467    89.3525 C             1 RES     
    1181 C          103.3267   141.6123    90.4170 C             1 RES     
    1182 C          102.4150   136.8176    89.8977 C             1 RES     
    1183 H          102.9608   135.6836    89.8787 H             1 RES     
    1184 H          100.7739   143.2702    89.7277 H             1 RES     
    1185 H          104.3015   141.5407    90.2943 H             1 RES     
    1186 H           99.4299   136.5509    89.0920 H             1 RES     
    1187 O           89.7518   133.1962    85.9954 O             1 RES     
    1188 C           87.9137   133.8191    85.4489 C             1 RES     
    1189 H           86.5894   131.1878    85.3181 H             1 RES     
    1190 H           87.5542   136.4774    83.9049 H             1 RES     
    1191 C          107.4133   139.6060    94.7321 C             1 RES     
    1192 H          106.1509   141.7056    93.7298 H             1 RES     
    1193 H          110.3937   139.2694    96.2364 H             1 RES     
    1194 O          106.8692   141.6762    94.3509 O             1 RES     
    1195 H           87.4745   134.2006    86.3469 H             1 RES     
    1196 C           86.6727   131.9455    84.5672 C             1 RES     
    1197 H           87.1837   131.5485    83.7150 H             1 RES     
    1198 O           87.2988   136.3107    84.8047 O             1 RES     
    1199 C          109.4973   138.7283    96.4562 C             1 RES     
    1200 H          106.9309   140.5436    94.5504 H             1 RES     
    1201 H          109.6665   137.6823    96.3074 H             1 RES     
    1202 H          117.1489   137.6263   106.1412 H             1 RES     
    1203 H          117.6662   140.1231   112.2567 H             1 RES     
    1204 H          107.0982   137.4308   106.0818 H             1 RES     
    1205 C          115.2789   136.6336   102.0421 C             1 RES     
    1206 C          118.2885   134.4865   100.5228 C             1 RES     
    1207 C          107.4680   137.9391   106.9477 C             1 RES     
    1208 N          109.8858   139.0725   100.2869 N             1 RES     
    1209 C          118.2634   140.6933   111.5760 C             1 RES     
    1210 H          117.8074   141.6476   111.4146 H             1 RES     
    1211 C          111.2146   136.8149   104.8527 C             1 RES     
    1212 H          115.0173   142.9871   110.0457 H             1 RES     
    1213 H          119.0443   139.6600   108.1503 H             1 RES     
    1214 C          118.4762   139.2189   108.9425 C             1 RES     
    1215 H          119.2413   140.8303   111.9881 H             1 RES     
    1216 C          114.2367   136.7874   104.7238 C             1 RES     
    1217 H          119.0605   135.1987   100.7267 H             1 RES     
    1218 C          114.6290   138.9421   108.5478 C             1 RES     
    1219 N          113.7377   143.1876   110.0744 N             1 RES     
    1220 C          110.2785   137.9528   106.8974 C             1 RES     
    1221 C          112.2516   138.9911   108.7977 C             1 RES     
    1222 H          118.9643   138.2703   109.0248 H             1 RES     
    1223 C          116.0899   137.6894   106.2810 C             1 RES     
    1224 H          107.1372   139.1234   106.6379 H             1 RES     
    1225 H          107.1295   137.4352   107.8288 H             1 RES     
    1226 H          115.4065   136.3170   101.6713 H             1 RES     
    1227 H          118.6027   133.5168   100.8485 H             1 RES     
    1228 H          110.6854   139.9336    99.8806 H             1 RES     
    1229 H          118.0932   134.4635    99.4710 H             1 RES     
    1230 H          114.7156   137.4450   101.2718 H             1 RES     
    1231 H          112.1726   143.4486   110.2444 H             1 RES     
    1232 H          108.1503   139.3462   100.3373 H             1 RES     
    1233 C          114.5305   149.1388   118.8621 C             1 RES     
    1234 C          114.5197   151.2550   120.0770 C             1 RES     
    1235 C          116.8253   153.6741   123.3440 C             1 RES     
    1236 C          117.6476   147.3706   119.9676 C             1 RES     
    1237 C          115.9380   147.6698   118.8715 C             1 RES     
    1238 C          116.4033   151.1898   121.4521 C             1 RES     
    1239 H          113.8495   152.0887   120.1014 H             1 RES     
    1240 H          113.3264   149.5614   118.1064 H             1 RES     
    1241 C          117.8061   149.4899   121.4297 C             1 RES     
    1242 H          118.3146   146.5344   119.9392 H             1 RES     
    1243 O          124.3978   152.9806   131.9731 O             1 RES     
    1244 H          118.6413   149.5502   122.0960 H             1 RES     
    1245 C          118.9664   153.9900   125.2402 C             1 RES     
    1246 H          116.8916   154.5377   122.7158 H             1 RES     
    1247 H          115.9916   153.6289   124.0131 H             1 RES     
    1248 C          119.0627   156.1558   126.5991 C             1 RES     
    1249 C          122.6109   153.4771   128.8415 C             1 RES     
    1250 C          120.8987   151.6643   125.1334 C             1 RES     
    1251 C          121.0291   156.2691   128.0909 C             1 RES     
    1252 C          122.7358   151.9419   126.5245 C             1 RES     
    1253 H          123.7279   151.1695   126.5799 H             1 RES     
    1254 H          118.3776   156.9777   126.6049 H             1 RES     
    1255 H          121.8995   156.6122   128.3988 H             1 RES     
    1256 H          120.6853   150.8585   124.4623 H             1 RES     
    1257 O          115.3805   145.3466   116.9799 O             1 RES     
    1258 C          113.7595   145.3785   115.7813 C             1 RES     
    1259 H          113.9728   142.6446   114.6972 H             1 RES     
    1260 H          112.7016   148.0565   114.6464 H             1 RES     
    1261 C          123.9216   154.6393   133.4128 C             1 RES     
    1262 H          122.2160   156.3168   132.2799 H             1 RES     
    1263 H          126.0285   154.9680   136.0035 H             1 RES     
    1264 O          122.6151   156.3558   133.1412 O             1 RES     
    1265 H          112.9272   145.2493   116.4412 H             1 RES     
    1266 C          113.9240   143.5798   114.1796 C             1 RES     
    1267 H          114.8075   143.7073   113.5895 H             1 RES     
    1268 O          112.2799   147.5204   115.3076 O             1 RES     
    1269 H          123.1400   155.3314   133.1783 H             1 RES     
    1270 H          126.1669   153.2965   135.5139 H             1 RES     
    1271 H           46.1281   130.4069    70.4395 H             1 RES     
    1272 H          125.1735   153.8599   136.7495 H             1 RES     
    1273 C          147.5599   129.4797    88.9345 C             1 RES     
    1274 C          148.7605   127.9756    87.4343 C             1 RES     
    1275 C          151.0212   123.8875    87.3009 C             1 RES     
    1276 C          147.3783   127.6769    92.2181 C             1 RES     
    1277 C          147.0015   129.1757    90.8671 C             1 RES     
    1278 C          149.3399   126.1307    88.7397 C             1 RES     
    1279 H          149.0576   128.0385    86.4084 H             1 RES     
    1280 H          147.3165   130.4148    87.8094 H             1 RES     
    1281 C          148.7461   125.9658    90.8559 C             1 RES     
    1282 H          147.0786   127.6190    93.2437 H             1 RES     
    1283 O          156.2162   115.7978    93.6140 O             1 RES     
    1284 H          149.0583   125.0825    91.3728 H             1 RES     
    1285 C          152.0017   121.4796    88.5340 C             1 RES     
    1286 H          150.4412   123.5476    86.4685 H             1 RES     
    1287 H          151.9491   124.3702    87.0753 H             1 RES     
    1288 C          153.2982   119.8222    87.0783 C             1 RES     
    1289 C          153.9837   117.8458    91.5969 C             1 RES     
    1290 C          151.1138   121.2663    91.4184 C             1 RES     
    1291 C          153.9610   117.7806    88.3020 C             1 RES     
    1292 C          151.7362   119.2657    92.4173 C             1 RES     
    1293 H          151.3963   118.8933    93.5705 H             1 RES     
    1294 H          153.5830   119.9088    86.0506 H             1 RES     
    1295 H          153.9366   116.8200    88.5184 H             1 RES     
    1296 H          150.5433   122.0706    91.8339 H             1 RES     
    1297 O          145.3756   131.4371    92.1037 O             1 RES     
    1298 C          144.8621   133.0424    90.9972 C             1 RES     
    1299 H          143.6883   134.6870    93.1448 H             1 RES     
    1300 H          144.2852   132.7411    87.9713 H             1 RES     
    1301 C          157.7827   114.8430    92.3158 C             1 RES     
    1302 H          157.4147   115.5961    89.8050 H             1 RES     
    1303 H          159.4212   112.2514    93.6789 H             1 RES     
    1304 O          158.0683   115.0093    90.1668 O             1 RES     
    1305 H          145.7782   133.5727    90.8405 H             1 RES     
    1306 H          142.3855   133.7759    92.4197 H             1 RES     
    1307 O          145.0377   133.1713    88.3602 O             1 RES     
    1308 C          159.3367   113.2407    94.0775 C             1 RES     
    1309 H          157.8759   115.1466    91.2940 H             1 RES     
    1310 H          158.8615   113.1999    95.0353 H             1 RES     
    1311 H          168.8942   107.6404    99.6318 H             1 RES     
    1312 H          175.5103   107.8485    99.3380 H             1 RES     
    1313 H          167.5921   117.4481    97.8507 H             1 RES     
    1314 C          164.5128   108.8870    98.9015 C             1 RES     
    1315 C          162.7175   105.9977   101.0002 C             1 RES     
    1316 C          168.6164   117.1665    97.7226 C             1 RES     
    1317 N          163.0729   113.4832    95.0392 N             1 RES     
    1318 C          175.1396   107.0659    98.7094 C             1 RES     
    1319 H          175.2606   107.3450    97.6836 H             1 RES     
    1320 C          166.7191   113.3117    98.8321 C             1 RES     
    1321 H          174.1123   109.6310    95.4681 H             1 RES     
    1322 H          171.6838   105.8540    98.7416 H             1 RES     
    1323 C          172.2058   106.6093    99.2911 C             1 RES     
    1324 H          175.6855   106.1658    98.9010 H             1 RES     
    1325 C          166.9443   110.3494    99.4016 C             1 RES     
    1326 H          163.2410   105.1791   100.5519 H             1 RES     
    1327 C          171.2916   110.3273    98.6798 C             1 RES     
    1328 N          174.0572   110.8536    95.0433 N             1 RES     
    1329 C          168.9042   114.4181    98.2377 C             1 RES     
    1330 C          171.2622   112.6798    98.2531 C             1 RES     
    1331 H          172.0167   106.2844   100.2928 H             1 RES     
    1332 C          168.9218   108.6873    99.4124 C             1 RES     
    1333 H          168.6920   117.2646    96.4606 H             1 RES     
    1334 H          169.2270   117.7227    98.4028 H             1 RES     
    1335 H          164.0740   108.7433    99.1035 H             1 RES     
    1336 H          162.7279   105.8877   102.0645 H             1 RES     
    1337 H          163.0812   112.5097    94.2658 H             1 RES     
    1338 H          161.7055   106.0071   100.6525 H             1 RES     
    1339 H          164.0045   109.1845    97.7960 H             1 RES     
    1340 H          174.1208   112.3704    94.5516 H             1 RES     
    1341 H          163.0094   115.1433    94.4651 H             1 RES     
    1342 C          184.3749   110.7655    92.4346 C             1 RES     
    1343 C          186.2278   110.6850    90.8488 C             1 RES     
    1344 C          190.3701   108.6638    90.0760 C             1 RES     
    1345 C          185.1698   108.1763    95.0288 C             1 RES     
    1346 C          184.0485   109.6069    94.0749 C             1 RES     
    1347 C          187.7095   109.1002    91.7069 C             1 RES     
    1348 H          186.4558   111.2224    89.9522 H             1 RES     
    1349 H          183.6725   111.7455    91.5711 H             1 RES     
    1350 C          187.2743   107.9737    93.5507 C             1 RES     
    1351 H          184.9368   107.6416    95.9259 H             1 RES     
    1352 O          199.0725   102.8973    94.9030 O             1 RES     
    1353 H          188.0144   107.2682    93.8661 H             1 RES     
    1354 C          192.4980   106.8648    90.7939 C             1 RES     
    1355 H          190.0860   108.3655    89.0886 H             1 RES     
    1356 H          190.8810   109.5995    90.1674 H             1 RES     
    1357 C          194.5147   106.6981    89.2281 C             1 RES     
    1358 C          196.1106   104.0186    93.1097 C             1 RES     
    1359 C          191.8329   105.2976    93.2950 C             1 RES     
    1360 C          196.1757   105.0275    89.9730 C             1 RES     
    1361 C          193.4410   103.7117    93.8305 C             1 RES     
    1362 H          193.3460   102.8658    94.7577 H             1 RES     
    1363 H          194.7195   107.2485    88.3337 H             1 RES     
    1364 H          196.6821   104.1843    89.9195 H             1 RES     
    1365 H          190.9075   105.5035    93.7911 H             1 RES     
    1366 O          181.4272   110.1522    95.5299 O             1 RES     
    1367 C          180.1296   111.5167    94.8093 C             1 RES     
    1368 H          178.2121   111.5115    97.0493 H             1 RES     
    1369 H          179.8589   111.9644    91.7587 H             1 RES     
    1370 C          200.9246   103.3751    93.7231 C             1 RES     
    1371 H          200.2390   104.5976    91.4776 H             1 RES     
    1372 H          203.7007   101.7290    94.6411 H             1 RES     
    1373 O          201.1025   104.3539    91.7898 O             1 RES     
    1374 H          180.6034   112.4615    94.9761 H             1 RES     
    1375 C          178.0420   111.3343    96.0079 C             1 RES     
    1376 H          177.6388   110.3522    95.8744 H             1 RES     
    1377 O          180.2435   112.5678    92.3836 O             1 RES     
    1378 C          203.0787   102.3384    95.2628 C             1 RES     
    1379 H          200.8499   103.9961    92.8550 H             1 RES     
    1380 H          202.6909   101.7484    96.0668 H             1 RES     
    1381 H          214.0574   101.0469   100.8629 H             1 RES     
    1382 H          219.4646   104.7320   101.9042 H             1 RES     
    1383 H          207.5877   108.7131   101.5177 H             1 RES     
    1384 C          209.7264   100.0028    99.6641 C             1 RES     
    1385 C          209.7923    96.1043   100.5430 C             1 RES     
    1386 C          208.5991   109.0622   101.5181 C             1 RES     
    1387 N          206.0468   104.1513    96.9501 N             1 RES     
    1388 C          219.5963   104.1255   101.0326 C             1 RES     
    1389 H          219.5583   104.7427   100.1594 H             1 RES     
    1390 C          209.1268   104.6688   101.1875 C             1 RES     
    1391 H          217.3720   106.6781    98.4486 H             1 RES     
    1392 H          217.3822   101.3670   100.0829 H             1 RES     
    1393 C          217.3929   102.0561   100.9014 C             1 RES     
    1394 H          220.5453   103.6334   101.0805 H             1 RES     
    1395 C          210.9403   102.2560   100.9874 C             1 RES     
    1396 H          210.6869    95.8734   100.0032 H             1 RES     
    1397 C          214.5886   104.7238   101.1298 C             1 RES     
    1398 N          216.6579   107.7553    98.3590 N             1 RES     
    1399 C          210.3475   106.8688   101.3349 C             1 RES     
    1400 C          213.2727   106.7089   101.3414 C             1 RES     
    1401 H          217.3999   101.3751   101.7267 H             1 RES     
    1402 C          213.5062   101.9610   100.9369 C             1 RES     
    1403 H          208.6264   109.5896   100.3652 H             1 RES     
    1404 H          208.7915   109.5970   102.4246 H             1 RES     
    1405 H          209.4368    99.5963    99.7334 H             1 RES     
    1406 H          209.8460    95.6762   101.5222 H             1 RES     
    1407 H          206.6020   103.6370    95.9635 H             1 RES     
    1408 H          208.9482    95.7011   100.0234 H             1 RES     
    1409 H          209.1546   100.3349    98.6003 H             1 RES     
    1410 H          215.8815   109.1484    98.3064 H             1 RES     
    1411 H          205.0866   105.6189    96.8331 H             1 RES     
    1412 C          225.3494   113.8755    97.8408 C             1 RES     
    1413 C          226.9623   115.2870    96.6743 C             1 RES     
    1414 C          231.5431   116.0835    96.2019 C             1 RES     
    1415 C          227.4027   111.3940    99.7622 C             1 RES     
    1416 C          225.6924   112.2560    99.0236 C             1 RES     
    1417 C          229.0596   114.5208    97.3506 C             1 RES     
    1418 H          226.8691   116.1221    96.0120 H             1 RES     
    1419 H          224.2357   114.5684    97.1488 H             1 RES     
    1420 C          229.2911   112.8041    98.7135 C             1 RES     
    1421 H          227.4902   110.5584   100.4248 H             1 RES     
    1422 O          241.9110   114.4545   100.9071 O             1 RES     
    1423 H          230.2929   112.5263    98.9669 H             1 RES     
    1424 C          234.2996   115.5278    96.8126 C             1 RES     
    1425 H          231.4852   116.0218    95.1354 H             1 RES     
    1426 H          231.4517   117.0586    96.6329 H             1 RES     
    1427 C          236.0962   116.9495    95.6736 C             1 RES     
    1428 C          238.8485   114.3921    98.9414 C             1 RES     
    1429 C          234.5728   113.1296    98.6367 C             1 RES     
    1430 C          238.3922   116.2450    96.2545 C             1 RES     
    1431 C          236.7808   112.5328    99.0319 C             1 RES     
    1432 H          237.1547   111.5126    99.6671 H             1 RES     
    1433 H          235.9766   117.7821    95.0123 H             1 RES     
    1434 H          239.2803   115.8573    96.0782 H             1 RES     
    1435 H          233.6801   112.6520    98.9833 H             1 RES     
    1436 O          223.1841   110.8570   100.0422 O             1 RES     
    1437 C          221.3598   111.4996    99.4730 C             1 RES     
    1438 H          219.7308   109.7739   101.2230 H             1 RES     
    1439 H          220.9317   112.7064    96.6552 H             1 RES     
    1440 C          243.2093   116.1754   100.2714 C             1 RES     
    1441 H          241.9960   117.5186    98.3400 H             1 RES     
    1442 H          246.4191   116.0111   101.2356 H             1 RES     
    1443 O          242.8460   117.6711    98.7359 O             1 RES     
    1444 H          221.2314   112.4381    99.9705 H             1 RES     
    1445 C          219.7020   109.8845   100.1592 C             1 RES     
    1446 H          219.9094   108.9421    99.6968 H             1 RES     
    1447 O          220.9106   113.1796    97.4787 O             1 RES     
    1448 H          242.8171   116.9106    99.6003 H             1 RES     
    1449 H          245.5454   115.0397   102.3957 H             1 RES     
    1450 H          142.2602   134.7801    92.0356 H             1 RES     
    1451 H          245.9657   116.6544   102.6126 H             1 RES     
    1452 C           34.3087   170.8653   202.3595 C             1 RES     
    1453 C           32.7526   170.0569   204.0564 C             1 RES     
    1454 C           32.0731   169.8496   208.6756 C             1 RES     
    1455 C           36.9527   172.7417   204.2445 C             1 RES     
    1456 C           35.9608   172.0292   202.5947 C             1 RES     
    1457 C           33.6566   170.7326   206.0984 C             1 RES     
    1458 H           31.8518   169.4810   204.0173 H             1 RES     
    1459 H           33.4201   170.3469   201.2913 H             1 RES     
    1460 C           35.5101   171.9192   206.2185 C             1 RES     
    1461 H           37.8540   173.3176   204.2779 H             1 RES     
    1462 O           37.1170   170.7114   218.9761 O             1 RES     
    1463 H           35.8471   172.1819   207.1995 H             1 RES     
    1464 C           32.8499   170.4044   211.3900 C             1 RES     
    1465 H           31.0859   170.2532   208.5894 H             1 RES     
    1466 H           32.1584   168.7830   208.6736 H             1 RES     
    1467 C           31.3176   169.5929   213.2716 C             1 RES     
    1468 C           35.2624   171.1574   215.8764 C             1 RES     
    1469 C           35.3635   172.0842   211.5062 C             1 RES     
    1470 C           32.1124   170.2586   215.5144 C             1 RES     
    1471 C           35.9469   172.7022   213.6661 C             1 RES     
    1472 H           36.8849   173.4847   213.9691 H             1 RES     
    1473 H           30.4183   169.0168   213.2060 H             1 RES     
    1474 H           32.0792   170.7562   216.3638 H             1 RES     
    1475 H           35.8424   172.3442   210.5852 H             1 RES     
    1476 O           37.3675   172.7988   200.0033 O             1 RES     
    1477 C           36.6070   172.2273   198.2256 C             1 RES     
    1478 H           38.8174   173.1382   196.4997 H             1 RES     
    1479 H           33.5464   171.9817   197.8361 H             1 RES     
    1480 C           35.9584   169.4110   220.3965 C             1 RES     
    1481 H           33.6849   168.6796   219.2551 H             1 RES     
    1482 H           36.9430   169.5197   223.6025 H             1 RES     
    1483 O           34.0138   168.4778   220.1232 O             1 RES     
    1484 H           36.7670   171.1701   198.1853 H             1 RES     
    1485 H           37.6513   174.4372   196.5762 H             1 RES     
    1486 O           34.1681   171.2642   197.8717 O             1 RES     
    1487 C           37.5460   169.2796   222.7520 C             1 RES     
    1488 H           35.0802   168.9068   220.0511 H             1 RES     
    1489 H           38.3527   169.9787   222.6779 H             1 RES     
    1490 H           43.3311   165.1185   232.8899 H             1 RES     
    1491 H           44.3999   159.2866   235.8477 H             1 RES     
    1492 H           43.7736   161.4879   223.5261 H             1 RES     
    1493 C           42.0821   168.1176   229.6143 C             1 RES     
    1494 C           43.0196   171.5025   231.5220 C             1 RES     
    1495 C           43.7842   160.6968   224.2464 C             1 RES     
    1496 N           39.2512   166.2561   224.4533 N             1 RES     
    1497 C           43.5394   159.7608   236.2718 C             1 RES     
    1498 H           42.6568   159.2423   235.9606 H             1 RES     
    1499 C           43.5269   164.3014   226.8213 C             1 RES     
    1500 H           40.8843   158.6015   233.1498 H             1 RES     
    1501 H           42.5972   163.2483   235.6700 H             1 RES     
    1502 C           43.4055   162.6338   235.3325 C             1 RES     
    1503 H           43.6091   159.7374   237.3393 H             1 RES     
    1504 C           43.3902   165.5508   229.5728 C             1 RES     
    1505 H           42.4971   171.2793   232.4287 H             1 RES     
    1506 C           43.5515   161.6355   231.5888 C             1 RES     
    1507 N           40.7679   157.9990   232.0089 N             1 RES     
    1508 C           43.6602   161.7847   226.8354 C             1 RES     
    1509 C           43.7136   160.5228   229.4787 C             1 RES     
    1510 H           44.2407   163.2234   235.6480 H             1 RES     
    1511 C           43.3831   164.5801   231.9667 C             1 RES     
    1512 H           42.6242   160.2274   224.0413 H             1 RES     
    1513 H           44.6855   160.1300   224.1404 H             1 RES     
    1514 H           42.1530   168.6129   229.5535 H             1 RES     
    1515 H           44.0058   171.8467   231.7542 H             1 RES     
    1516 H           38.2810   166.4471   225.2071 H             1 RES     
    1517 H           42.4933   172.2639   230.9851 H             1 RES     
    1518 H           41.0049   168.1064   228.9751 H             1 RES     
    1519 H           40.6829   157.1487   230.6611 H             1 RES     
    1520 H           39.0978   165.4291   222.9099 H             1 RES     
    1521 C           40.2914   148.4646   236.7139 C             1 RES     
    1522 C           39.1288   146.4594   237.4767 C             1 RES     
    1523 C           38.7145   143.5673   241.1245 C             1 RES     
    1524 C           42.2805   149.6472   239.6653 C             1 RES     
    1525 C           41.5031   149.7147   237.7666 C             1 RES     
    1526 C           39.8483   146.1227   239.6705 C             1 RES     
    1527 H           38.4529   145.7749   237.0084 H             1 RES     
    1528 H           39.5723   148.3943   235.4188 H             1 RES     
    1529 C           41.2398   147.5105   240.6682 C             1 RES     
    1530 H           42.9566   150.3348   240.1289 H             1 RES     
    1531 O           43.6005   140.0004   250.9065 O             1 RES     
    1532 H           41.5125   147.2727   241.6752 H             1 RES     
    1533 C           39.3752   142.7303   243.7970 C             1 RES     
    1534 H           37.6482   143.6554   241.1251 H             1 RES     
    1535 H           39.1294   142.7529   240.5682 H             1 RES     
    1536 C           38.2427   140.6279   244.7157 C             1 RES     
    1537 C           41.5897   141.5344   248.2893 C             1 RES     
    1538 C           41.2387   144.6936   245.1485 C             1 RES     
    1539 C           38.8689   140.1424   247.0561 C             1 RES     
    1540 C           41.6762   144.1567   247.3639 C             1 RES     
    1541 H           42.3321   144.8692   248.1678 H             1 RES     
    1542 H           37.5674   139.9583   244.2253 H             1 RES     
    1543 H           38.7119   140.0579   248.0248 H             1 RES     
    1544 H           41.5786   145.5386   244.5869 H             1 RES     
    1545 O           42.5041   152.1390   236.2151 O             1 RES     
    1546 C           41.8977   152.4527   234.3180 C             1 RES     
    1547 H           43.6482   154.7381   233.6795 H             1 RES     
    1548 H           39.0561   151.6149   233.4218 H             1 RES     
    1549 C           42.9593   137.8715   251.2343 C             1 RES     
    1550 H           40.9899   137.2853   249.5656 H             1 RES     
    1551 H           43.9745   136.4715   254.1098 H             1 RES     
    1552 O           41.3964   136.7417   250.2302 O             1 RES     
    1553 H           42.3792   151.6878   233.7454 H             1 RES     
    1554 C           42.5825   154.6609   233.6230 C             1 RES     
    1555 H           42.1373   155.3912   234.2660 H             1 RES     
    1556 O           39.8721   151.2051   233.1596 O             1 RES     
    1557 C           44.5916   136.9191   253.3590 C             1 RES     
    1558 H           42.2714   137.4181   250.5515 H             1 RES     
    1559 H           45.1355   137.7362   253.7848 H             1 RES     
    1560 H           51.7485   129.6964   260.4421 H             1 RES     
    1561 H           54.6956   123.7812   259.9650 H             1 RES     
    1562 H           52.9699   132.1087   250.7599 H             1 RES     
    1563 C           49.5064   133.5063   259.1222 C             1 RES     
    1564 C           49.4042   135.3848   262.6488 C             1 RES     
    1565 C           53.2536   131.0932   250.9420 C             1 RES     
    1566 N           47.2178   134.0831   253.4174 N             1 RES     
    1567 C           53.7457   123.6800   260.4472 C             1 RES     
    1568 H           53.0593   123.1953   259.7848 H             1 RES     
    1569 C           51.9726   132.4430   254.9704 C             1 RES     
    1570 H           51.4772   123.7383   256.8429 H             1 RES     
    1571 H           51.7375   126.4910   261.6630 H             1 RES     
    1572 C           52.6850   126.4196   261.1710 C             1 RES     
    1573 H           53.8574   123.0946   261.3359 H             1 RES     
    1574 C           51.5502   131.8759   257.9116 C             1 RES     
    1575 H           49.0107   134.5644   263.2118 H             1 RES     
    1576 C           53.0020   127.7321   257.5364 C             1 RES     
    1577 N           51.5145   123.8585   255.5535 N             1 RES     
    1578 C           52.8880   130.4920   253.6636 C             1 RES     
    1579 C           53.4287   128.0614   255.2070 C             1 RES     
    1580 H           53.3042   126.9445   261.8679 H             1 RES     
    1581 C           51.9334   129.7946   259.3928 C             1 RES     
    1582 H           52.2924   130.5111   250.3544 H             1 RES     
    1583 H           54.2827   130.9582   250.6821 H             1 RES     
    1584 H           49.4163   133.9493   259.3450 H             1 RES     
    1585 H           50.2405   135.8048   263.1675 H             1 RES     
    1586 H           46.2643   133.5470   254.0085 H             1 RES     
    1587 H           48.6469   136.1314   262.5296 H             1 RES     
    1588 H           48.4647   133.5464   258.4277 H             1 RES     
    1589 H           51.6518   123.9061   253.9644 H             1 RES     
    1590 H           47.2760   134.2373   251.6674 H             1 RES     
    1591 C           54.2175   113.6359   254.3445 C             1 RES     
    1592 C           53.7697   111.3125   253.7482 C             1 RES     
    1593 C           54.4131   106.9158   255.1962 C             1 RES     
    1594 C           55.8405   113.5028   257.7229 C             1 RES     
    1595 C           55.0136   114.3812   256.0621 C             1 RES     
    1596 C           54.6366   110.0439   255.5039 C             1 RES     
    1597 H           53.3258   110.8416   252.8962 H             1 RES     
    1598 H           53.5107   114.0905   253.1226 H             1 RES     
    1599 C           55.5582   110.9782   257.2746 C             1 RES     
    1600 H           56.2834   113.9789   258.5727 H             1 RES     
    1601 O           60.5181   100.1041   262.1686 O             1 RES     
    1602 H           55.9276   110.3142   258.0280 H             1 RES     
    1603 C           55.3982   104.9739   257.0771 C             1 RES     
    1604 H           53.3737   106.6857   255.0900 H             1 RES     
    1605 H           55.0421   106.6970   254.3587 H             1 RES     
    1606 C           55.0150   102.4968   256.5636 C             1 RES     
    1607 C           58.0354   102.1854   260.5100 C             1 RES     
    1608 C           56.6001   106.2991   259.5171 C             1 RES     
    1609 C           55.8452   101.0043   258.3491 C             1 RES     
    1610 C           57.2629   104.7819   261.1439 C             1 RES     
    1611 H           57.6910   105.0849   262.2880 H             1 RES     
    1612 H           54.5663   102.0498   255.7012 H             1 RES     
    1613 H           55.7574   100.3614   259.0903 H             1 RES     
    1614 H           56.6379   107.3681   259.5463 H             1 RES     
    1615 O           55.1485   117.4224   256.1996 O             1 RES     
    1616 C           54.4067   118.5417   254.6956 C             1 RES     
    1617 H           55.3292   121.1821   255.6293 H             1 RES     
    1618 H           51.9404   117.5777   253.0933 H             1 RES     
    1619 C           60.5881    98.0687   261.2184 C             1 RES     
    1620 H           58.8429    97.9718   259.2305 H             1 RES     
    1621 H           62.0932    95.6716   263.0206 H             1 RES     
    1622 O           59.4228    97.2928   259.5548 O             1 RES     
    1623 H           55.0828   118.3894   253.8804 H             1 RES     
    1624 C           54.3400   120.8535   255.3878 C             1 RES     
    1625 H           53.7119   120.9500   256.2486 H             1 RES     
    1626 O           52.8338   117.6281   252.7740 O             1 RES     
    1627 H           60.0529    97.8940   260.3085 H             1 RES     
    1628 H           62.7871    97.1712   263.5886 H             1 RES     
    1629 H           37.5065   174.0007   195.5963 H             1 RES     
    1630 H           63.4690    96.1772   262.4147 H             1 RES     
    1631 C           45.1290   163.1031   204.6051 C             1 RES     
    1632 C           43.6093   162.5558   206.4340 C             1 RES     
    1633 C           43.1776   162.7336   211.0841 C             1 RES     
    1634 C           48.0241   164.8672   206.2088 C             1 RES     
    1635 C           46.8839   164.1307   204.6690 C             1 RES     
    1636 C           44.6811   163.2908   208.3716 C             1 RES     
    1637 H           42.6624   162.0601   206.4836 H             1 RES     
    1638 H           44.1409   162.5912   203.6248 H             1 RES     
    1639 C           46.6316   164.3153   208.3090 C             1 RES     
    1640 H           48.9711   165.3623   206.1536 H             1 RES     
    1641 O           48.8518   163.8686   221.0239 O             1 RES     
    1642 H           47.0446   164.6155   209.2494 H             1 RES     
    1643 C           44.1509   163.4069   213.7069 C             1 RES     
    1644 H           42.2246   163.2154   211.0179 H             1 RES     
    1645 H           43.1726   161.6661   211.1576 H             1 RES     
    1646 C           42.6649   162.8674   215.7187 C             1 RES     
    1647 C           46.8685   164.2575   217.9970 C             1 RES     
    1648 C           46.7994   164.8630   213.5702 C             1 RES     
    1649 C           43.6387   163.6162   217.8625 C             1 RES     
    1650 C           47.5542   165.5772   215.6457 C             1 RES     
    1651 H           48.5704   166.2935   215.8417 H             1 RES     
    1652 H           41.7181   162.3695   215.7418 H             1 RES     
    1653 H           43.6956   164.1732   218.6729 H             1 RES     
    1654 H           47.2455   165.0147   212.6094 H             1 RES     
    1655 O           48.2012   164.5899   201.9597 O             1 RES     
    1656 C           47.2958   163.9642   200.2704 C             1 RES     
    1657 H           49.4736   164.5538   198.3719 H             1 RES     
    1658 H           44.2082   163.9621   200.0551 H             1 RES     
    1659 C           47.6704   162.7781   222.5942 C             1 RES     
    1660 H           45.2823   162.1713   221.6268 H             1 RES     
    1661 H           48.8407   163.0243   225.7293 H             1 RES     
    1662 O           45.6418   162.0027   222.4899 O             1 RES     
    1663 H           47.3637   162.8969   200.3012 H             1 RES     
    1664 H           48.4270   165.9525   198.4097 H             1 RES     
    1665 O           44.7683   163.1970   200.1129 O             1 RES     
    1666 C           49.3722   162.6730   224.8698 C             1 RES     
    1667 H           46.7347   162.3301   222.3322 H             1 RES     
    1668 H           50.2293   163.2914   224.7031 H             1 RES     
    1669 H           55.3522   158.7404   234.9859 H             1 RES     
    1670 H           56.0926   153.0590   238.3138 H             1 RES     
    1671 H           54.9563   154.4372   225.9094 H             1 RES     
    1672 C           54.1762   161.6006   231.5623 C             1 RES     
    1673 C           55.5016   165.0153   233.1619 C             1 RES     
    1674 C           54.9411   153.7006   226.6853 C             1 RES     
    1675 N           50.9107   159.6380   226.7043 N             1 RES     
    1676 C           55.3005   153.6356   238.7441 C             1 RES     
    1677 H           54.3612   153.1763   238.5174 H             1 RES     
    1678 C           55.1342   157.4856   228.9932 C             1 RES     
    1679 H           52.3846   152.4983   235.8554 H             1 RES     
    1680 H           54.6224   157.1417   237.9315 H             1 RES     
    1681 C           55.3557   156.4363   237.6006 C             1 RES     
    1682 H           55.4284   153.6812   239.8054 H             1 RES     
    1683 C           55.2593   158.9321   231.6470 C             1 RES     
    1684 H           55.0144   164.9032   234.1079 H             1 RES     
    1685 C           55.2048   155.1689   233.9394 C             1 RES     
    1686 N           52.1535   151.8298   234.7700 N             1 RES     
    1687 C           55.0561   154.9741   229.1887 C             1 RES     
    1688 C           55.1529   153.9010   231.9129 C             1 RES     
    1689 H           56.2540   156.9707   237.8286 H             1 RES     
    1690 C           55.3063   158.1361   234.1041 C             1 RES     
    1691 H           53.7360   153.3219   226.5747 H             1 RES     
    1692 H           55.7841   153.0507   226.5768 H             1 RES     
    1693 H           54.2849   162.0822   231.4612 H             1 RES     
    1694 H           56.5249   165.2869   233.3177 H             1 RES     
    1695 H           50.0043   159.9660   227.4897 H             1 RES     
    1696 H           55.0116   165.7806   232.5969 H             1 RES     
    1697 H           53.0674   161.6394   230.9809 H             1 RES     
    1698 H           51.9210   150.8980   233.4956 H             1 RES     
    1699 H           50.6011   158.7215   225.2368 H             1 RES     
    1700 C           51.1443   142.7280   240.1928 C             1 RES     
    1701 C           49.8623   140.8913   241.1611 C             1 RES     
    1702 C           49.4136   138.3100   245.0311 C             1 RES     
    1703 C           53.3898   143.9351   242.9434 C             1 RES     
    1704 C           52.5146   143.9374   241.0866 C             1 RES     
    1705 C           50.6741   140.6473   243.3348 C             1 RES     
    1706 H           49.1057   140.2379   240.7799 H             1 RES     
    1707 H           50.3496   142.6306   238.9445 H             1 RES     
    1708 C           52.2317   141.9739   244.1545 C             1 RES     
    1709 H           54.1466   144.5914   243.3196 H             1 RES     
    1710 O           54.5290   135.0219   254.7936 O             1 RES     
    1711 H           52.5401   141.7842   245.1614 H             1 RES     
    1712 C           50.1521   137.6076   247.7220 C             1 RES     
    1713 H           48.3603   138.4914   245.0789 H             1 RES     
    1714 H           49.7264   137.4253   244.5171 H             1 RES     
    1715 C           48.9007   135.6827   248.8513 C             1 RES     
    1716 C           52.5092   136.5395   252.1737 C             1 RES     
    1717 C           52.2476   139.4893   248.8273 C             1 RES     
    1718 C           49.6155   135.3093   251.1868 C             1 RES     
    1719 C           52.7633   139.0727   251.0517 C             1 RES     
    1720 H           53.5213   139.7794   251.7659 H             1 RES     
    1721 H           48.1448   135.0424   248.4470 H             1 RES     
    1722 H           49.5071   135.3071   252.1659 H             1 RES     
    1723 H           52.6250   140.2597   248.1876 H             1 RES     
    1724 O           53.6263   146.1494   239.3097 O             1 RES     
    1725 C           52.9419   146.3814   237.4275 C             1 RES     
    1726 H           54.8394   148.4534   236.5325 H             1 RES     
    1727 H           49.9938   145.7361   236.7408 H             1 RES     
    1728 C           53.7306   132.9860   255.3115 C             1 RES     
    1729 H           51.6275   132.4597   253.7928 H             1 RES     
    1730 H           54.7859   131.7073   258.2288 H             1 RES     
    1731 O           52.0238   131.9305   254.4749 O             1 RES     
    1732 H           53.3242   145.5388   236.8901 H             1 RES     
    1733 C           53.7695   148.4666   236.5357 C             1 RES     
    1734 H           53.4245   149.2765   237.1439 H             1 RES     
    1735 O           50.7562   145.2387   236.4692 O             1 RES     
    1736 C           55.3948   132.0450   257.4165 C             1 RES     
    1737 H           52.9694   132.5481   254.7002 H             1 RES     
    1738 H           56.0287   132.8390   257.7521 H             1 RES     
    1739 H           62.3089   124.7353   264.6500 H             1 RES     
    1740 H           64.7162   118.5649   264.4685 H             1 RES     
    1741 H           63.1781   126.3456   254.7652 H             1 RES     
    1742 C           60.3239   128.6257   263.1637 C             1 RES     
    1743 C           60.5801   130.7487   266.5405 C             1 RES     
    1744 C           63.3852   125.3244   255.0083 C             1 RES     
    1745 N           57.7723   129.0000   257.5543 N             1 RES     
    1746 C           63.7901   118.5817   265.0042 C             1 RES     
    1747 H           63.0289   118.1141   264.4154 H             1 RES     
    1748 C           62.4527   127.0609   258.9839 C             1 RES     
    1749 H           61.3339   118.5865   261.5246 H             1 RES     
    1750 H           62.0976   121.6369   266.1062 H             1 RES     
    1751 C           63.0063   121.4480   265.5737 C             1 RES     
    1752 H           63.9024   118.0526   265.9274 H             1 RES     
    1753 C           62.1515   126.7409   261.9768 C             1 RES     
    1754 H           60.1516   130.0076   267.1824 H             1 RES     
    1755 C           63.2261   122.4693   261.8398 C             1 RES     
    1756 N           61.3081   118.6121   260.2296 N             1 RES     
    1757 C           63.1252   124.9501   257.7821 C             1 RES     
    1758 C           63.5462   122.5956   259.4737 C             1 RES     
    1759 H           63.7060   121.9640   266.1973 H             1 RES     
    1760 C           62.4416   124.7430   263.5883 C             1 RES     
    1761 H           62.3467   124.7894   254.5150 H             1 RES     
    1762 H           64.3829   125.0815   254.7076 H             1 RES     
    1763 H           60.2842   129.0894   263.3569 H             1 RES     
    1764 H           61.4769   131.1288   266.9836 H             1 RES     
    1765 H           56.8121   128.5927   258.2312 H             1 RES     
    1766 H           59.8828   131.5488   266.4042 H             1 RES     
    1767 H           59.2516   128.7085   262.5215 H             1 RES     
    1768 H           61.3586   118.5359   258.6365 H             1 RES     
    1769 H           57.7439   129.0254   255.7970 H             1 RES     
    1770 C           63.0689   108.1318   259.6536 C             1 RES     
    1771 C           62.3942   105.8208   259.2560 C             1 RES     
    1772 C           62.7466   101.4970   260.9944 C             1 RES     
    1773 C           64.8638   108.0937   262.9464 C             1 RES     
    1774 C           64.0209   108.9229   261.2683 C             1 RES     
    1775 C           63.2494   104.6071   261.0557 C             1 RES     
    1776 H           61.8647   105.3321   258.4651 H             1 RES     
    1777 H           62.3346   108.5600   258.4383 H             1 RES     
    1778 C           64.3452   105.5786   262.7029 C             1 RES     
    1779 H           65.3926   108.5875   263.7348 H             1 RES     
    1780 O           68.6424    94.6804   268.1400 O             1 RES     
    1781 H           64.6996   104.9391   263.4843 H             1 RES     
    1782 C           63.6699    99.6126   262.9632 C             1 RES     
    1783 H           61.6871   101.3523   260.9583 H             1 RES     
    1784 H           63.3064   101.1654   260.1450 H             1 RES     
    1785 C           63.0512    97.1490   262.6563 C             1 RES     
    1786 C           66.2536    96.8506   266.4576 C             1 RES     
    1787 C           65.1153   100.9948   265.2335 C             1 RES     
    1788 C           63.8529    95.7182   264.5043 C             1 RES     
    1789 C           65.7393    99.5431   266.9337 C             1 RES     
    1790 H           66.2556    99.8867   268.0289 H             1 RES     
    1791 H           62.5183    96.6839   261.8534 H             1 RES     
    1792 H           63.7535    95.1391   265.2950 H             1 RES     
    1793 H           65.2445   102.0557   265.1809 H             1 RES     
    1794 O           64.4187   111.9425   261.1711 O             1 RES     
    1795 C           63.6896   113.0144   259.6269 C             1 RES     
    1796 H           64.8823   115.6224   260.3129 H             1 RES     
    1797 H           61.0641   112.1612   258.2275 H             1 RES     
    1798 C           68.4871    92.5851   267.3422 C             1 RES     
    1799 H           66.6301    92.5030   265.4577 H             1 RES     
    1800 H           69.8849    90.1972   269.2404 H             1 RES     
    1801 O           67.1682    91.8000   265.8022 O             1 RES     
    1802 H           64.3031   112.7464   258.7923 H             1 RES     
    1803 C           63.8569   115.3660   260.1468 C             1 RES     
    1804 H           63.2889   115.5776   261.0285 H             1 RES     
    1805 O           61.9390   112.1103   257.8608 O             1 RES     
    1806 H           67.8883    92.3948   266.4761 H             1 RES     
    1807 H           70.7336    91.6661   269.6590 H             1 RES     
    1808 H           48.1908   165.4628   197.4738 H             1 RES     
    1809 H           71.2618    90.5361   268.5298 H             1 RES     
@<TRIPOS>BOND
       1        1        2 1
       2        1        5 1
       3        1        8 1
       4        2        6 1
       5        2        7 1
       6        3        6 1
       7        3       13 1
       8        3       14 1
       9        3       15 1
      10        4        5 1
      11        4       10 1
      12        4        9 1
      13        5       25 1
      14        6        9 1
      15        9       12 1
      16       11       17 1
      17       11       35 1
      18       13       16 1
      19       13       18 1
      20       16       19 1
      21       16       22 1
      22       17       19 1
      23       17       20 1
      24       18       24 1
      25       18       20 1
      26       19       23 1
      27       20       21 1
      28       25       26 1
      29       26       27 1
      30       26       28 1
      31       26       29 1
      32       27       31 1
      33       27       61 1
      34       27       68 1
      35       30       50 1
      36       30       52 1
      37       30       57 1
      38       30       60 1
      39       31       56 1
      40       32       50 1
      41       33       50 1
      42       34       58 1
      43       35       36 1
      44       35       37 1
      45       35       38 1
      46       36       40 1
      47       36       41 1
      48       36       42 1
      49       38       39 1
      50       40       43 1
      51       40       44 1
      52       40       72 1
      53       43       45 1
      54       43       47 1
      55       45       48 1
      56       45       50 1
      57       46       58 1
      58       47       54 1
      59       47       58 1
      60       48       51 1
      61       48       62 1
      62       49       63 1
      63       51       54 1
      64       51       55 1
      65       53       58 1
      66       54       59 1
      67       55       63 1
      68       55       64 1
      69       55       65 1
      70       56       70 1
      71       56       71 1
      72       56      364 1
      73       59       69 1
      74       59       73 1
      75       59      129 1
      76       63       67 1
      77       63       66 1
      78       74       75 1
      79       74       78 1
      80       74       81 1
      81       75       79 1
      82       75       80 1
      83       76       79 1
      84       76       86 1
      85       76       87 1
      86       76       88 1
      87       77       78 1
      88       77       83 1
      89       77       82 1
      90       78       98 1
      91       79       82 1
      92       82       85 1
      93       84       90 1
      94       84      108 1
      95       86       89 1
      96       86       91 1
      97       89       92 1
      98       89       95 1
      99       90       92 1
     100       90       93 1
     101       91       97 1
     102       91       93 1
     103       92       96 1
     104       93       94 1
     105       98       99 1
     106       99      100 1
     107       99      101 1
     108       99      102 1
     109      100      104 1
     110      100      134 1
     111      100      141 1
     112      103      123 1
     113      103      125 1
     114      103      130 1
     115      103      133 1
     116      104      129 1
     117      105      123 1
     118      106      123 1
     119      107      131 1
     120      108      109 1
     121      108      110 1
     122      108      111 1
     123      109      113 1
     124      109      114 1
     125      109      115 1
     126      111      112 1
     127      113      116 1
     128      113      117 1
     129      113     1119 1
     130      116      118 1
     131      116      120 1
     132      118      121 1
     133      118      123 1
     134      119      131 1
     135      120      127 1
     136      120      131 1
     137      121      124 1
     138      121      135 1
     139      122      136 1
     140      124      127 1
     141      124      128 1
     142      126      131 1
     143      127      132 1
     144      128      136 1
     145      128      137 1
     146      128      138 1
     147      129      143 1
     148      129      144 1
     149      132      142 1
     150      132      145 1
     151      132      201 1
     152      136      140 1
     153      136      139 1
     154      146      147 1
     155      146      150 1
     156      146      153 1
     157      147      151 1
     158      147      152 1
     159      148      151 1
     160      148      158 1
     161      148      159 1
     162      148      160 1
     163      149      150 1
     164      149      155 1
     165      149      154 1
     166      150      170 1
     167      151      154 1
     168      154      157 1
     169      156      162 1
     170      156      180 1
     171      158      161 1
     172      158      163 1
     173      161      164 1
     174      161      167 1
     175      162      164 1
     176      162      165 1
     177      163      169 1
     178      163      165 1
     179      164      168 1
     180      165      166 1
     181      170      171 1
     182      171      172 1
     183      171      173 1
     184      171      174 1
     185      172      176 1
     186      172      206 1
     187      172      213 1
     188      175      195 1
     189      175      197 1
     190      175      202 1
     191      175      205 1
     192      176      201 1
     193      177      195 1
     194      178      195 1
     195      179      203 1
     196      180      181 1
     197      180      182 1
     198      180      183 1
     199      181      185 1
     200      181      186 1
     201      181      187 1
     202      183      184 1
     203      185      188 1
     204      185      189 1
     205      185      217 1
     206      188      190 1
     207      188      192 1
     208      190      193 1
     209      190      195 1
     210      191      203 1
     211      192      199 1
     212      192      203 1
     213      193      196 1
     214      193      207 1
     215      194      208 1
     216      196      199 1
     217      196      200 1
     218      198      203 1
     219      199      204 1
     220      200      208 1
     221      200      209 1
     222      200      210 1
     223      201      215 1
     224      201      216 1
     225      204      214 1
     226      204      218 1
     227      204      274 1
     228      208      212 1
     229      208      211 1
     230      219      220 1
     231      219      223 1
     232      219      226 1
     233      220      224 1
     234      220      225 1
     235      221      224 1
     236      221      231 1
     237      221      232 1
     238      221      233 1
     239      222      223 1
     240      222      228 1
     241      222      227 1
     242      223      243 1
     243      224      227 1
     244      227      230 1
     245      229      235 1
     246      229      253 1
     247      231      234 1
     248      231      236 1
     249      234      237 1
     250      234      240 1
     251      235      237 1
     252      235      238 1
     253      236      242 1
     254      236      238 1
     255      237      241 1
     256      238      239 1
     257      243      244 1
     258      244      245 1
     259      244      246 1
     260      244      247 1
     261      245      249 1
     262      245      279 1
     263      245      286 1
     264      248      268 1
     265      248      270 1
     266      248      275 1
     267      248      278 1
     268      249      274 1
     269      250      268 1
     270      251      268 1
     271      252      276 1
     272      253      254 1
     273      253      255 1
     274      253      256 1
     275      254      258 1
     276      254      259 1
     277      254      260 1
     278      256      257 1
     279      258      261 1
     280      258      262 1
     281      258     1298 1
     282      261      263 1
     283      261      265 1
     284      263      266 1
     285      263      268 1
     286      264      276 1
     287      265      272 1
     288      265      276 1
     289      266      269 1
     290      266      280 1
     291      267      281 1
     292      269      272 1
     293      269      273 1
     294      271      276 1
     295      272      277 1
     296      273      281 1
     297      273      282 1
     298      273      283 1
     299      274      288 1
     300      274      289 1
     301      277      287 1
     302      277      290 1
     303      277      346 1
     304      281      285 1
     305      281      284 1
     306      291      292 1
     307      291      295 1
     308      291      298 1
     309      292      296 1
     310      292      297 1
     311      293      296 1
     312      293      303 1
     313      293      304 1
     314      293      305 1
     315      294      295 1
     316      294      300 1
     317      294      299 1
     318      295      315 1
     319      296      299 1
     320      299      302 1
     321      301      307 1
     322      301      325 1
     323      303      306 1
     324      303      308 1
     325      306      309 1
     326      306      312 1
     327      307      309 1
     328      307      310 1
     329      308      314 1
     330      308      310 1
     331      309      313 1
     332      310      311 1
     333      315      316 1
     334      316      317 1
     335      316      318 1
     336      316      319 1
     337      317      321 1
     338      317      351 1
     339      317      358 1
     340      320      340 1
     341      320      342 1
     342      320      347 1
     343      320      350 1
     344      321      346 1
     345      322      340 1
     346      323      340 1
     347      324      348 1
     348      325      326 1
     349      325      327 1
     350      325      328 1
     351      326      330 1
     352      326      331 1
     353      326      332 1
     354      328      329 1
     355      330      333 1
     356      330      334 1
     357      330      362 1
     358      333      335 1
     359      333      337 1
     360      335      338 1
     361      335      340 1
     362      336      348 1
     363      337      344 1
     364      337      348 1
     365      338      341 1
     366      338      352 1
     367      339      353 1
     368      341      344 1
     369      341      345 1
     370      343      348 1
     371      344      349 1
     372      345      353 1
     373      345      354 1
     374      345      355 1
     375      346      360 1
     376      346      361 1
     377      349      359 1
     378      349      363 1
     379      349      365 1
     380      353      357 1
     381      353      356 1
     382      366      367 1
     383      366      370 1
     384      366      373 1
     385      367      371 1
     386      367      372 1
     387      368      371 1
     388      368      378 1
     389      368      379 1
     390      368      380 1
     391      369      370 1
     392      369      375 1
     393      369      374 1
     394      370      390 1
     395      371      374 1
     396      374      377 1
     397      376      382 1
     398      376      400 1
     399      378      381 1
     400      378      383 1
     401      381      384 1
     402      381      387 1
     403      382      384 1
     404      382      385 1
     405      383      389 1
     406      383      385 1
     407      384      388 1
     408      385      386 1
     409      390      391 1
     410      391      392 1
     411      391      393 1
     412      391      394 1
     413      392      396 1
     414      392      426 1
     415      392      433 1
     416      395      415 1
     417      395      417 1
     418      395      422 1
     419      395      425 1
     420      396      421 1
     421      397      415 1
     422      398      415 1
     423      399      423 1
     424      400      401 1
     425      400      402 1
     426      400      403 1
     427      401      405 1
     428      401      406 1
     429      401      407 1
     430      403      404 1
     431      405      408 1
     432      405      409 1
     433      405     1477 1
     434      408      410 1
     435      408      412 1
     436      410      413 1
     437      410      415 1
     438      411      423 1
     439      412      419 1
     440      412      423 1
     441      413      416 1
     442      413      427 1
     443      414      428 1
     444      416      419 1
     445      416      420 1
     446      418      423 1
     447      419      424 1
     448      420      428 1
     449      420      429 1
     450      420      430 1
     451      421      435 1
     452      421      436 1
     453      421      727 1
     454      424      434 1
     455      424      492 1
     456      424     1656 1
     457      428      432 1
     458      428      431 1
     459      437      438 1
     460      437      441 1
     461      437      444 1
     462      438      442 1
     463      438      443 1
     464      439      442 1
     465      439      449 1
     466      439      450 1
     467      439      451 1
     468      440      441 1
     469      440      446 1
     470      440      445 1
     471      441      461 1
     472      442      445 1
     473      445      448 1
     474      447      453 1
     475      447      471 1
     476      449      452 1
     477      449      454 1
     478      452      455 1
     479      452      458 1
     480      453      455 1
     481      453      456 1
     482      454      460 1
     483      454      456 1
     484      455      459 1
     485      456      457 1
     486      461      462 1
     487      462      463 1
     488      462      464 1
     489      462      465 1
     490      463      467 1
     491      463      497 1
     492      463      504 1
     493      466      486 1
     494      466      488 1
     495      466      493 1
     496      466      496 1
     497      467      492 1
     498      468      486 1
     499      469      486 1
     500      470      494 1
     501      471      472 1
     502      471      473 1
     503      471      474 1
     504      472      476 1
     505      472      477 1
     506      472      478 1
     507      474      475 1
     508      476      479 1
     509      476      480 1
     510      476     1261 1
     511      479      481 1
     512      479      483 1
     513      481      484 1
     514      481      486 1
     515      482      494 1
     516      483      490 1
     517      483      494 1
     518      484      487 1
     519      484      498 1
     520      485      499 1
     521      487      490 1
     522      487      491 1
     523      489      494 1
     524      490      495 1
     525      491      499 1
     526      491      500 1
     527      491      501 1
     528      492      506 1
     529      492      507 1
     530      495      505 1
     531      495      508 1
     532      495      564 1
     533      499      503 1
     534      499      502 1
     535      509      510 1
     536      509      513 1
     537      509      516 1
     538      510      514 1
     539      510      515 1
     540      511      514 1
     541      511      521 1
     542      511      522 1
     543      511      523 1
     544      512      513 1
     545      512      518 1
     546      512      517 1
     547      513      533 1
     548      514      517 1
     549      517      520 1
     550      519      525 1
     551      519      543 1
     552      521      524 1
     553      521      526 1
     554      524      527 1
     555      524      530 1
     556      525      527 1
     557      525      528 1
     558      526      532 1
     559      526      528 1
     560      527      531 1
     561      528      529 1
     562      533      534 1
     563      534      535 1
     564      534      536 1
     565      534      537 1
     566      535      539 1
     567      535      569 1
     568      535      576 1
     569      538      558 1
     570      538      560 1
     571      538      565 1
     572      538      568 1
     573      539      564 1
     574      540      558 1
     575      541      558 1
     576      542      566 1
     577      543      544 1
     578      543      545 1
     579      543      546 1
     580      544      548 1
     581      544      549 1
     582      544      550 1
     583      546      547 1
     584      548      551 1
     585      548      552 1
     586      548      580 1
     587      551      553 1
     588      551      555 1
     589      553      556 1
     590      553      558 1
     591      554      566 1
     592      555      562 1
     593      555      566 1
     594      556      559 1
     595      556      570 1
     596      557      571 1
     597      559      562 1
     598      559      563 1
     599      561      566 1
     600      562      567 1
     601      563      571 1
     602      563      572 1
     603      563      573 1
     604      564      578 1
     605      564      579 1
     606      567      577 1
     607      567      581 1
     608      567      637 1
     609      571      575 1
     610      571      574 1
     611      582      583 1
     612      582      586 1
     613      582      589 1
     614      583      587 1
     615      583      588 1
     616      584      587 1
     617      584      594 1
     618      584      595 1
     619      584      596 1
     620      585      586 1
     621      585      591 1
     622      585      590 1
     623      586      606 1
     624      587      590 1
     625      590      593 1
     626      592      598 1
     627      592      616 1
     628      594      597 1
     629      594      599 1
     630      597      600 1
     631      597      603 1
     632      598      600 1
     633      598      601 1
     634      599      605 1
     635      599      601 1
     636      600      604 1
     637      601      602 1
     638      606      607 1
     639      607      608 1
     640      607      609 1
     641      607      610 1
     642      608      612 1
     643      608      642 1
     644      608      649 1
     645      611      631 1
     646      611      633 1
     647      611      638 1
     648      611      641 1
     649      612      637 1
     650      613      631 1
     651      614      631 1
     652      615      639 1
     653      616      617 1
     654      616      618 1
     655      616      619 1
     656      617      621 1
     657      617      622 1
     658      617      623 1
     659      619      620 1
     660      621      624 1
     661      621      625 1
     662      621     1440 1
     663      624      626 1
     664      624      628 1
     665      626      629 1
     666      626      631 1
     667      627      639 1
     668      628      635 1
     669      628      639 1
     670      629      632 1
     671      629      643 1
     672      630      644 1
     673      632      635 1
     674      632      636 1
     675      634      639 1
     676      635      640 1
     677      636      644 1
     678      636      645 1
     679      636      646 1
     680      637      651 1
     681      637      652 1
     682      640      650 1
     683      640      653 1
     684      640      709 1
     685      644      648 1
     686      644      647 1
     687      654      655 1
     688      654      658 1
     689      654      661 1
     690      655      659 1
     691      655      660 1
     692      656      659 1
     693      656      666 1
     694      656      667 1
     695      656      668 1
     696      657      658 1
     697      657      663 1
     698      657      662 1
     699      658      678 1
     700      659      662 1
     701      662      665 1
     702      664      670 1
     703      664      688 1
     704      666      669 1
     705      666      671 1
     706      669      672 1
     707      669      675 1
     708      670      672 1
     709      670      673 1
     710      671      677 1
     711      671      673 1
     712      672      676 1
     713      673      674 1
     714      678      679 1
     715      679      680 1
     716      679      681 1
     717      679      682 1
     718      680      684 1
     719      680      714 1
     720      680      721 1
     721      683      703 1
     722      683      705 1
     723      683      710 1
     724      683      713 1
     725      684      709 1
     726      685      703 1
     727      686      703 1
     728      687      711 1
     729      688      689 1
     730      688      690 1
     731      688      691 1
     732      689      693 1
     733      689      694 1
     734      689      695 1
     735      691      692 1
     736      693      696 1
     737      693      697 1
     738      693      725 1
     739      696      698 1
     740      696      700 1
     741      698      701 1
     742      698      703 1
     743      699      711 1
     744      700      707 1
     745      700      711 1
     746      701      704 1
     747      701      715 1
     748      702      716 1
     749      704      707 1
     750      704      708 1
     751      706      711 1
     752      707      712 1
     753      708      716 1
     754      708      717 1
     755      708      718 1
     756      709      723 1
     757      709      724 1
     758      712      722 1
     759      712      726 1
     760      712      728 1
     761      716      720 1
     762      716      719 1
     763      729      730 1
     764      729      733 1
     765      729      736 1
     766      730      734 1
     767      730      735 1
     768      731      734 1
     769      731      741 1
     770      731      742 1
     771      731      743 1
     772      732      733 1
     773      732      738 1
     774      732      737 1
     775      733      753 1
     776      734      737 1
     777      737      740 1
     778      739      745 1
     779      739      763 1
     780      741      744 1
     781      741      746 1
     782      744      747 1
     783      744      750 1
     784      745      747 1
     785      745      748 1
     786      746      752 1
     787      746      748 1
     788      747      751 1
     789      748      749 1
     790      753      754 1
     791      754      755 1
     792      754      756 1
     793      754      757 1
     794      755      759 1
     795      755      789 1
     796      755      796 1
     797      758      778 1
     798      758      780 1
     799      758      785 1
     800      758      788 1
     801      759      784 1
     802      760      778 1
     803      761      778 1
     804      762      786 1
     805      763      764 1
     806      763      765 1
     807      763      766 1
     808      764      768 1
     809      764      769 1
     810      764      770 1
     811      766      767 1
     812      768      771 1
     813      768      772 1
     814      768     1619 1
     815      771      773 1
     816      771      775 1
     817      773      776 1
     818      773      778 1
     819      774      786 1
     820      775      782 1
     821      775      786 1
     822      776      779 1
     823      776      790 1
     824      777      791 1
     825      779      782 1
     826      779      783 1
     827      781      786 1
     828      782      787 1
     829      783      791 1
     830      783      792 1
     831      783      793 1
     832      784      798 1
     833      784      799 1
     834      784     1092 1
     835      787      797 1
     836      787      855 1
     837      787     1798 1
     838      791      795 1
     839      791      794 1
     840      800      801 1
     841      800      804 1
     842      800      807 1
     843      801      805 1
     844      801      806 1
     845      802      805 1
     846      802      812 1
     847      802      813 1
     848      802      814 1
     849      803      804 1
     850      803      809 1
     851      803      808 1
     852      804      824 1
     853      805      808 1
     854      808      811 1
     855      810      816 1
     856      810      834 1
     857      812      815 1
     858      812      817 1
     859      815      818 1
     860      815      821 1
     861      816      818 1
     862      816      819 1
     863      817      823 1
     864      817      819 1
     865      818      822 1
     866      819      820 1
     867      824      825 1
     868      825      826 1
     869      825      827 1
     870      825      828 1
     871      826      830 1
     872      826      860 1
     873      826      867 1
     874      829      849 1
     875      829      851 1
     876      829      856 1
     877      829      859 1
     878      830      855 1
     879      831      849 1
     880      832      849 1
     881      833      857 1
     882      834      835 1
     883      834      836 1
     884      834      837 1
     885      835      839 1
     886      835      840 1
     887      835      841 1
     888      837      838 1
     889      839      842 1
     890      839      843 1
     891      839      871 1
     892      842      844 1
     893      842      846 1
     894      844      847 1
     895      844      849 1
     896      845      857 1
     897      846      853 1
     898      846      857 1
     899      847      850 1
     900      847      861 1
     901      848      862 1
     902      850      853 1
     903      850      854 1
     904      852      857 1
     905      853      858 1
     906      854      862 1
     907      854      863 1
     908      854      864 1
     909      855      869 1
     910      855      870 1
     911      858      868 1
     912      858      872 1
     913      858      928 1
     914      862      866 1
     915      862      865 1
     916      873      874 1
     917      873      877 1
     918      873      880 1
     919      874      878 1
     920      874      879 1
     921      875      878 1
     922      875      885 1
     923      875      886 1
     924      875      887 1
     925      876      877 1
     926      876      882 1
     927      876      881 1
     928      877      897 1
     929      878      881 1
     930      881      884 1
     931      883      889 1
     932      883      907 1
     933      885      888 1
     934      885      890 1
     935      888      891 1
     936      888      894 1
     937      889      891 1
     938      889      892 1
     939      890      896 1
     940      890      892 1
     941      891      895 1
     942      892      893 1
     943      897      898 1
     944      898      899 1
     945      898      900 1
     946      898      901 1
     947      899      903 1
     948      899      933 1
     949      899      940 1
     950      902      922 1
     951      902      924 1
     952      902      929 1
     953      902      932 1
     954      903      928 1
     955      904      922 1
     956      905      922 1
     957      906      930 1
     958      907      908 1
     959      907      909 1
     960      907      910 1
     961      908      912 1
     962      908      913 1
     963      908      914 1
     964      910      911 1
     965      912      915 1
     966      912      916 1
     967      912      944 1
     968      915      917 1
     969      915      919 1
     970      917      920 1
     971      917      922 1
     972      918      930 1
     973      919      926 1
     974      919      930 1
     975      920      923 1
     976      920      934 1
     977      921      935 1
     978      923      926 1
     979      923      927 1
     980      925      930 1
     981      926      931 1
     982      927      935 1
     983      927      936 1
     984      927      937 1
     985      928      942 1
     986      928      943 1
     987      931      941 1
     988      931      945 1
     989      931     1001 1
     990      935      939 1
     991      935      938 1
     992      946      947 1
     993      946      950 1
     994      946      953 1
     995      947      951 1
     996      947      952 1
     997      948      951 1
     998      948      958 1
     999      948      959 1
    1000      948      960 1
    1001      949      950 1
    1002      949      955 1
    1003      949      954 1
    1004      950      970 1
    1005      951      954 1
    1006      954      957 1
    1007      956      962 1
    1008      956      980 1
    1009      958      961 1
    1010      958      963 1
    1011      961      964 1
    1012      961      967 1
    1013      962      964 1
    1014      962      965 1
    1015      963      969 1
    1016      963      965 1
    1017      964      968 1
    1018      965      966 1
    1019      970      971 1
    1020      971      972 1
    1021      971      973 1
    1022      971      974 1
    1023      972      976 1
    1024      972     1006 1
    1025      972     1013 1
    1026      975      995 1
    1027      975      997 1
    1028      975     1002 1
    1029      975     1005 1
    1030      976     1001 1
    1031      977      995 1
    1032      978      995 1
    1033      979     1003 1
    1034      980      981 1
    1035      980      982 1
    1036      980      983 1
    1037      981      985 1
    1038      981      986 1
    1039      981      987 1
    1040      983      984 1
    1041      985      988 1
    1042      985      989 1
    1043      985     1017 1
    1044      988      990 1
    1045      988      992 1
    1046      990      993 1
    1047      990      995 1
    1048      991     1003 1
    1049      992      999 1
    1050      992     1003 1
    1051      993      996 1
    1052      993     1007 1
    1053      994     1008 1
    1054      996      999 1
    1055      996     1000 1
    1056      998     1003 1
    1057      999     1004 1
    1058     1000     1008 1
    1059     1000     1009 1
    1060     1000     1010 1
    1061     1001     1015 1
    1062     1001     1016 1
    1063     1004     1014 1
    1064     1004     1018 1
    1065     1004     1074 1
    1066     1008     1012 1
    1067     1008     1011 1
    1068     1019     1020 1
    1069     1019     1023 1
    1070     1019     1026 1
    1071     1020     1024 1
    1072     1020     1025 1
    1073     1021     1024 1
    1074     1021     1031 1
    1075     1021     1032 1
    1076     1021     1033 1
    1077     1022     1023 1
    1078     1022     1028 1
    1079     1022     1027 1
    1080     1023     1043 1
    1081     1024     1027 1
    1082     1027     1030 1
    1083     1029     1035 1
    1084     1029     1053 1
    1085     1031     1034 1
    1086     1031     1036 1
    1087     1034     1037 1
    1088     1034     1040 1
    1089     1035     1037 1
    1090     1035     1038 1
    1091     1036     1042 1
    1092     1036     1038 1
    1093     1037     1041 1
    1094     1038     1039 1
    1095     1043     1044 1
    1096     1044     1045 1
    1097     1044     1046 1
    1098     1044     1047 1
    1099     1045     1049 1
    1100     1045     1079 1
    1101     1045     1086 1
    1102     1048     1068 1
    1103     1048     1070 1
    1104     1048     1075 1
    1105     1048     1078 1
    1106     1049     1074 1
    1107     1050     1068 1
    1108     1051     1068 1
    1109     1052     1076 1
    1110     1053     1054 1
    1111     1053     1055 1
    1112     1053     1056 1
    1113     1054     1058 1
    1114     1054     1059 1
    1115     1054     1060 1
    1116     1056     1057 1
    1117     1058     1061 1
    1118     1058     1062 1
    1119     1058     1090 1
    1120     1061     1063 1
    1121     1061     1065 1
    1122     1063     1066 1
    1123     1063     1068 1
    1124     1064     1076 1
    1125     1065     1072 1
    1126     1065     1076 1
    1127     1066     1069 1
    1128     1066     1080 1
    1129     1067     1081 1
    1130     1069     1072 1
    1131     1069     1073 1
    1132     1071     1076 1
    1133     1072     1077 1
    1134     1073     1081 1
    1135     1073     1082 1
    1136     1073     1083 1
    1137     1074     1088 1
    1138     1074     1089 1
    1139     1077     1087 1
    1140     1077     1091 1
    1141     1077     1093 1
    1142     1081     1085 1
    1143     1081     1084 1
    1144     1094     1095 1
    1145     1094     1098 1
    1146     1094     1101 1
    1147     1095     1099 1
    1148     1095     1100 1
    1149     1096     1099 1
    1150     1096     1106 1
    1151     1096     1107 1
    1152     1096     1108 1
    1153     1097     1098 1
    1154     1097     1103 1
    1155     1097     1102 1
    1156     1098     1118 1
    1157     1099     1102 1
    1158     1102     1105 1
    1159     1104     1110 1
    1160     1104     1122 1
    1161     1106     1109 1
    1162     1106     1111 1
    1163     1109     1112 1
    1164     1109     1115 1
    1165     1110     1112 1
    1166     1110     1113 1
    1167     1111     1117 1
    1168     1111     1113 1
    1169     1112     1116 1
    1170     1113     1114 1
    1171     1118     1119 1
    1172     1119     1126 1
    1173     1119     1128 1
    1174     1121     1128 1
    1175     1122     1125 1
    1176     1122     1129 1
    1177     1122     1130 1
    1178     1123     1125 1
    1179     1124     1129 1
    1180     1129     1131 1
    1181     1129     1138 1
    1182     1132     1153 1
    1183     1133     1139 1
    1184     1134     1137 1
    1185     1135     1156 1
    1186     1135     1146 1
    1187     1135     1136 1
    1188     1135     1160 1
    1189     1136     1147 1
    1190     1136     1159 1
    1191     1136     1157 1
    1192     1137     1150 1
    1193     1137     1154 1
    1194     1137     1155 1
    1195     1138     1141 1
    1196     1138     1158 1
    1197     1138     1162 1
    1198     1139     1140 1
    1199     1139     1145 1
    1200     1139     1144 1
    1201     1141     1146 1
    1202     1141     1150 1
    1203     1142     1149 1
    1204     1143     1144 1
    1205     1144     1152 1
    1206     1144     1148 1
    1207     1146     1153 1
    1208     1148     1153 1
    1209     1148     1151 1
    1210     1149     1151 1
    1211     1149     1161 1
    1212     1149     1196 1
    1213     1150     1151 1
    1214     1163     1164 1
    1215     1163     1167 1
    1216     1163     1170 1
    1217     1164     1168 1
    1218     1164     1169 1
    1219     1165     1168 1
    1220     1165     1175 1
    1221     1165     1176 1
    1222     1165     1177 1
    1223     1166     1167 1
    1224     1166     1172 1
    1225     1166     1171 1
    1226     1167     1187 1
    1227     1168     1171 1
    1228     1171     1174 1
    1229     1173     1179 1
    1230     1173     1191 1
    1231     1175     1178 1
    1232     1175     1180 1
    1233     1178     1181 1
    1234     1178     1184 1
    1235     1179     1181 1
    1236     1179     1182 1
    1237     1180     1186 1
    1238     1180     1182 1
    1239     1181     1185 1
    1240     1182     1183 1
    1241     1187     1188 1
    1242     1188     1195 1
    1243     1188     1196 1
    1244     1188     1198 1
    1245     1189     1196 1
    1246     1190     1198 1
    1247     1191     1194 1
    1248     1191     1199 1
    1249     1191     1200 1
    1250     1192     1194 1
    1251     1193     1199 1
    1252     1196     1197 1
    1253     1199     1201 1
    1254     1199     1208 1
    1255     1202     1223 1
    1256     1203     1209 1
    1257     1204     1207 1
    1258     1205     1226 1
    1259     1205     1216 1
    1260     1205     1206 1
    1261     1205     1230 1
    1262     1206     1217 1
    1263     1206     1229 1
    1264     1206     1227 1
    1265     1207     1220 1
    1266     1207     1224 1
    1267     1207     1225 1
    1268     1208     1211 1
    1269     1208     1228 1
    1270     1208     1232 1
    1271     1209     1210 1
    1272     1209     1215 1
    1273     1209     1214 1
    1274     1211     1216 1
    1275     1211     1220 1
    1276     1212     1219 1
    1277     1213     1214 1
    1278     1214     1222 1
    1279     1214     1218 1
    1280     1216     1223 1
    1281     1218     1223 1
    1282     1218     1221 1
    1283     1219     1221 1
    1284     1219     1231 1
    1285     1219     1266 1
    1286     1220     1221 1
    1287     1233     1234 1
    1288     1233     1237 1
    1289     1233     1240 1
    1290     1234     1238 1
    1291     1234     1239 1
    1292     1235     1238 1
    1293     1235     1245 1
    1294     1235     1246 1
    1295     1235     1247 1
    1296     1236     1237 1
    1297     1236     1242 1
    1298     1236     1241 1
    1299     1237     1257 1
    1300     1238     1241 1
    1301     1241     1244 1
    1302     1243     1249 1
    1303     1243     1261 1
    1304     1245     1248 1
    1305     1245     1250 1
    1306     1248     1251 1
    1307     1248     1254 1
    1308     1249     1251 1
    1309     1249     1252 1
    1310     1250     1256 1
    1311     1250     1252 1
    1312     1251     1255 1
    1313     1252     1253 1
    1314     1257     1258 1
    1315     1258     1265 1
    1316     1258     1266 1
    1317     1258     1268 1
    1318     1259     1266 1
    1319     1260     1268 1
    1320     1261     1264 1
    1321     1261     1269 1
    1322     1262     1264 1
    1323     1266     1267 1
    1324     1273     1274 1
    1325     1273     1277 1
    1326     1273     1280 1
    1327     1274     1278 1
    1328     1274     1279 1
    1329     1275     1278 1
    1330     1275     1285 1
    1331     1275     1286 1
    1332     1275     1287 1
    1333     1276     1277 1
    1334     1276     1282 1
    1335     1276     1281 1
    1336     1277     1297 1
    1337     1278     1281 1
    1338     1281     1284 1
    1339     1283     1289 1
    1340     1283     1301 1
    1341     1285     1288 1
    1342     1285     1290 1
    1343     1288     1291 1
    1344     1288     1294 1
    1345     1289     1291 1
    1346     1289     1292 1
    1347     1290     1296 1
    1348     1290     1292 1
    1349     1291     1295 1
    1350     1292     1293 1
    1351     1297     1298 1
    1352     1298     1305 1
    1353     1298     1307 1
    1354     1300     1307 1
    1355     1301     1304 1
    1356     1301     1308 1
    1357     1301     1309 1
    1358     1302     1304 1
    1359     1303     1308 1
    1360     1308     1310 1
    1361     1308     1317 1
    1362     1311     1332 1
    1363     1312     1318 1
    1364     1313     1316 1
    1365     1314     1335 1
    1366     1314     1325 1
    1367     1314     1315 1
    1368     1314     1339 1
    1369     1315     1326 1
    1370     1315     1338 1
    1371     1315     1336 1
    1372     1316     1329 1
    1373     1316     1333 1
    1374     1316     1334 1
    1375     1317     1320 1
    1376     1317     1337 1
    1377     1317     1341 1
    1378     1318     1319 1
    1379     1318     1324 1
    1380     1318     1323 1
    1381     1320     1325 1
    1382     1320     1329 1
    1383     1321     1328 1
    1384     1322     1323 1
    1385     1323     1331 1
    1386     1323     1327 1
    1387     1325     1332 1
    1388     1327     1332 1
    1389     1327     1330 1
    1390     1328     1330 1
    1391     1328     1340 1
    1392     1328     1375 1
    1393     1329     1330 1
    1394     1342     1343 1
    1395     1342     1346 1
    1396     1342     1349 1
    1397     1343     1347 1
    1398     1343     1348 1
    1399     1344     1347 1
    1400     1344     1354 1
    1401     1344     1355 1
    1402     1344     1356 1
    1403     1345     1346 1
    1404     1345     1351 1
    1405     1345     1350 1
    1406     1346     1366 1
    1407     1347     1350 1
    1408     1350     1353 1
    1409     1352     1358 1
    1410     1352     1370 1
    1411     1354     1357 1
    1412     1354     1359 1
    1413     1357     1360 1
    1414     1357     1363 1
    1415     1358     1360 1
    1416     1358     1361 1
    1417     1359     1365 1
    1418     1359     1361 1
    1419     1360     1364 1
    1420     1361     1362 1
    1421     1366     1367 1
    1422     1367     1374 1
    1423     1367     1375 1
    1424     1367     1377 1
    1425     1368     1375 1
    1426     1369     1377 1
    1427     1370     1373 1
    1428     1370     1378 1
    1429     1370     1379 1
    1430     1371     1373 1
    1431     1372     1378 1
    1432     1375     1376 1
    1433     1378     1380 1
    1434     1378     1387 1
    1435     1381     1402 1
    1436     1382     1388 1
    1437     1383     1386 1
    1438     1384     1405 1
    1439     1384     1395 1
    1440     1384     1385 1
    1441     1384     1409 1
    1442     1385     1396 1
    1443     1385     1408 1
    1444     1385     1406 1
    1445     1386     1399 1
    1446     1386     1403 1
    1447     1386     1404 1
    1448     1387     1390 1
    1449     1387     1407 1
    1450     1387     1411 1
    1451     1388     1389 1
    1452     1388     1394 1
    1453     1388     1393 1
    1454     1390     1395 1
    1455     1390     1399 1
    1456     1391     1398 1
    1457     1392     1393 1
    1458     1393     1401 1
    1459     1393     1397 1
    1460     1395     1402 1
    1461     1397     1402 1
    1462     1397     1400 1
    1463     1398     1400 1
    1464     1398     1410 1
    1465     1398     1445 1
    1466     1399     1400 1
    1467     1412     1413 1
    1468     1412     1416 1
    1469     1412     1419 1
    1470     1413     1417 1
    1471     1413     1418 1
    1472     1414     1417 1
    1473     1414     1424 1
    1474     1414     1425 1
    1475     1414     1426 1
    1476     1415     1416 1
    1477     1415     1421 1
    1478     1415     1420 1
    1479     1416     1436 1
    1480     1417     1420 1
    1481     1420     1423 1
    1482     1422     1428 1
    1483     1422     1440 1
    1484     1424     1427 1
    1485     1424     1429 1
    1486     1427     1430 1
    1487     1427     1433 1
    1488     1428     1430 1
    1489     1428     1431 1
    1490     1429     1435 1
    1491     1429     1431 1
    1492     1430     1434 1
    1493     1431     1432 1
    1494     1436     1437 1
    1495     1437     1444 1
    1496     1437     1445 1
    1497     1437     1447 1
    1498     1438     1445 1
    1499     1439     1447 1
    1500     1440     1443 1
    1501     1440     1448 1
    1502     1441     1443 1
    1503     1445     1446 1
    1504     1452     1453 1
    1505     1452     1456 1
    1506     1452     1459 1
    1507     1453     1457 1
    1508     1453     1458 1
    1509     1454     1457 1
    1510     1454     1464 1
    1511     1454     1465 1
    1512     1454     1466 1
    1513     1455     1456 1
    1514     1455     1461 1
    1515     1455     1460 1
    1516     1456     1476 1
    1517     1457     1460 1
    1518     1460     1463 1
    1519     1462     1468 1
    1520     1462     1480 1
    1521     1464     1467 1
    1522     1464     1469 1
    1523     1467     1470 1
    1524     1467     1473 1
    1525     1468     1470 1
    1526     1468     1471 1
    1527     1469     1475 1
    1528     1469     1471 1
    1529     1470     1474 1
    1530     1471     1472 1
    1531     1476     1477 1
    1532     1477     1484 1
    1533     1477     1486 1
    1534     1479     1486 1
    1535     1480     1483 1
    1536     1480     1487 1
    1537     1480     1488 1
    1538     1481     1483 1
    1539     1482     1487 1
    1540     1487     1489 1
    1541     1487     1496 1
    1542     1490     1511 1
    1543     1491     1497 1
    1544     1492     1495 1
    1545     1493     1514 1
    1546     1493     1504 1
    1547     1493     1494 1
    1548     1493     1518 1
    1549     1494     1505 1
    1550     1494     1517 1
    1551     1494     1515 1
    1552     1495     1508 1
    1553     1495     1512 1
    1554     1495     1513 1
    1555     1496     1499 1
    1556     1496     1516 1
    1557     1496     1520 1
    1558     1497     1498 1
    1559     1497     1503 1
    1560     1497     1502 1
    1561     1499     1504 1
    1562     1499     1508 1
    1563     1500     1507 1
    1564     1501     1502 1
    1565     1502     1510 1
    1566     1502     1506 1
    1567     1504     1511 1
    1568     1506     1511 1
    1569     1506     1509 1
    1570     1507     1509 1
    1571     1507     1519 1
    1572     1507     1554 1
    1573     1508     1509 1
    1574     1521     1522 1
    1575     1521     1525 1
    1576     1521     1528 1
    1577     1522     1526 1
    1578     1522     1527 1
    1579     1523     1526 1
    1580     1523     1533 1
    1581     1523     1534 1
    1582     1523     1535 1
    1583     1524     1525 1
    1584     1524     1530 1
    1585     1524     1529 1
    1586     1525     1545 1
    1587     1526     1529 1
    1588     1529     1532 1
    1589     1531     1537 1
    1590     1531     1549 1
    1591     1533     1536 1
    1592     1533     1538 1
    1593     1536     1539 1
    1594     1536     1542 1
    1595     1537     1539 1
    1596     1537     1540 1
    1597     1538     1544 1
    1598     1538     1540 1
    1599     1539     1543 1
    1600     1540     1541 1
    1601     1545     1546 1
    1602     1546     1553 1
    1603     1546     1554 1
    1604     1546     1556 1
    1605     1547     1554 1
    1606     1548     1556 1
    1607     1549     1552 1
    1608     1549     1557 1
    1609     1549     1558 1
    1610     1550     1552 1
    1611     1551     1557 1
    1612     1554     1555 1
    1613     1557     1559 1
    1614     1557     1566 1
    1615     1560     1581 1
    1616     1561     1567 1
    1617     1562     1565 1
    1618     1563     1584 1
    1619     1563     1574 1
    1620     1563     1564 1
    1621     1563     1588 1
    1622     1564     1575 1
    1623     1564     1587 1
    1624     1564     1585 1
    1625     1565     1578 1
    1626     1565     1582 1
    1627     1565     1583 1
    1628     1566     1569 1
    1629     1566     1586 1
    1630     1566     1590 1
    1631     1567     1568 1
    1632     1567     1573 1
    1633     1567     1572 1
    1634     1569     1574 1
    1635     1569     1578 1
    1636     1570     1577 1
    1637     1571     1572 1
    1638     1572     1580 1
    1639     1572     1576 1
    1640     1574     1581 1
    1641     1576     1581 1
    1642     1576     1579 1
    1643     1577     1579 1
    1644     1577     1589 1
    1645     1577     1624 1
    1646     1578     1579 1
    1647     1591     1592 1
    1648     1591     1595 1
    1649     1591     1598 1
    1650     1592     1596 1
    1651     1592     1597 1
    1652     1593     1596 1
    1653     1593     1603 1
    1654     1593     1604 1
    1655     1593     1605 1
    1656     1594     1595 1
    1657     1594     1600 1
    1658     1594     1599 1
    1659     1595     1615 1
    1660     1596     1599 1
    1661     1599     1602 1
    1662     1601     1607 1
    1663     1601     1619 1
    1664     1603     1606 1
    1665     1603     1608 1
    1666     1606     1609 1
    1667     1606     1612 1
    1668     1607     1609 1
    1669     1607     1610 1
    1670     1608     1614 1
    1671     1608     1610 1
    1672     1609     1613 1
    1673     1610     1611 1
    1674     1615     1616 1
    1675     1616     1623 1
    1676     1616     1624 1
    1677     1616     1626 1
    1678     1617     1624 1
    1679     1618     1626 1
    1680     1619     1622 1
    1681     1619     1627 1
    1682     1620     1622 1
    1683     1624     1625 1
    1684     1631     1632 1
    1685     1631     1635 1
    1686     1631     1638 1
    1687     1632     1636 1
    1688     1632     1637 1
    1689     1633     1636 1
    1690     1633     1643 1
    1691     1633     1644 1
    1692     1633     1645 1
    1693     1634     1635 1
    1694     1634     1640 1
    1695     1634     1639 1
    1696     1635     1655 1
    1697     1636     1639 1
    1698     1639     1642 1
    1699     1641     1647 1
    1700     1641     1659 1
    1701     1643     1646 1
    1702     1643     1648 1
    1703     1646     1649 1
    1704     1646     1652 1
    1705     1647     1649 1
    1706     1647     1650 1
    1707     1648     1654 1
    1708     1648     1650 1
    1709     1649     1653 1
    1710     1650     1651 1
    1711     1655     1656 1
    1712     1656     1663 1
    1713     1656     1665 1
    1714     1658     1665 1
    1715     1659     1662 1
    1716     1659     1666 1
    1717     1659     1667 1
    1718     1660     1662 1
    1719     1661     1666 1
    1720     1666     1668 1
    1721     1666     1675 1
    1722     1669     1690 1
    1723     1670     1676 1
    1724     1671     1674 1
    1725     1672     1693 1
    1726     1672     1683 1
    1727     1672     1673 1
    1728     1672     1697 1
    1729     1673     1684 1
    1730     1673     1696 1
    1731     1673     1694 1
    1732     1674     1687 1
    1733     1674     1691 1
    1734     1674     1692 1
    1735     1675     1678 1
    1736     1675     1695 1
    1737     1675     1699 1
    1738     1676     1677 1
    1739     1676     1682 1
    1740     1676     1681 1
    1741     1678     1683 1
    1742     1678     1687 1
    1743     1679     1686 1
    1744     1680     1681 1
    1745     1681     1689 1
    1746     1681     1685 1
    1747     1683     1690 1
    1748     1685     1690 1
    1749     1685     1688 1
    1750     1686     1688 1
    1751     1686     1698 1
    1752     1686     1733 1
    1753     1687     1688 1
    1754     1700     1701 1
    1755     1700     1704 1
    1756     1700     1707 1
    1757     1701     1705 1
    1758     1701     1706 1
    1759     1702     1705 1
    1760     1702     1712 1
    1761     1702     1713 1
    1762     1702     1714 1
    1763     1703     1704 1
    1764     1703     1709 1
    1765     1703     1708 1
    1766     1704     1724 1
    1767     1705     1708 1
    1768     1708     1711 1
    1769     1710     1716 1
    1770     1710     1728 1
    1771     1712     1715 1
    1772     1712     1717 1
    1773     1715     1718 1
    1774     1715     1721 1
    1775     1716     1718 1
    1776     1716     1719 1
    1777     1717     1723 1
    1778     1717     1719 1
    1779     1718     1722 1
    1780     1719     1720 1
    1781     1724     1725 1
    1782     1725     1732 1
    1783     1725     1733 1
    1784     1725     1735 1
    1785     1726     1733 1
    1786     1727     1735 1
    1787     1728     1731 1
    1788     1728     1736 1
    1789     1728     1737 1
    1790     1729     1731 1
    1791     1730     1736 1
    1792     1733     1734 1
    1793     1736     1738 1
    1794     1736     1745 1
    1795     1739     1760 1
    1796     1740     1746 1
    1797     1741     1744 1
    1798     1742     1763 1
    1799     1742     1753 1
    1800     1742     1743 1
    1801     1742     1767 1
    1802     1743     1754 1
    1803     1743     1766 1
    1804     1743     1764 1
    1805     1744     1757 1
    1806     1744     1761 1
    1807     1744     1762 1
    1808     1745     1748 1
    1809     1745     1765 1
    1810     1745     1769 1
    1811     1746     1747 1
    1812     1746     1752 1
    1813     1746     1751 1
    1814     1748     1753 1
    1815     1748     1757 1
    1816     1749     1756 1
    1817     1750     1751 1
    1818     1751     1759 1
    1819     1751     1755 1
    1820     1753     1760 1
    1821     1755     1760 1
    1822     1755     1758 1
    1823     1756     1758 1
    1824     1756     1768 1
    1825     1756     1803 1
    1826     1757     1758 1
    1827     1770     1771 1
    1828     1770     1774 1
    1829     1770     1777 1
    1830     1771     1775 1
    1831     1771     1776 1
    1832     1772     1775 1
    1833     1772     1782 1
    1834     1772     1783 1
    1835     1772     1784 1
    1836     1773     1774 1
    1837     1773     1779 1
    1838     1773     1778 1
    1839     1774     1794 1
    1840     1775     1778 1
    1841     1778     1781 1
    1842     1780     1786 1
    1843     1780     1798 1
    1844     1782     1785 1
    1845     1782     1787 1
    1846     1785     1788 1
    1847     1785     1791 1
    1848     1786     1788 1
    1849     1786     1789 1
    1850     1787     1793 1
    1851     1787     1789 1
    1852     1788     1792 1
    1853     1789     1790 1
    1854     1794     1795 1
    1855     1795     1802 1
    1856     1795     1803 1
    1857     1795     1805 1
    1858     1796     1803 1
    1859     1797     1805 1
    1860     1798     1801 1
    1861     1798     1806 1
    1862     1799     1801 1
    1863     1803     1804 1
@<TRIPOS>SUBSTRUCTURE
       1 RES             1 RESIDUE    0 **** ROOT      0
