@<TRIPOS>MOLECULE
RES
1249 1303 1 0 1
SMALL
NO_CHARGES
@<TRIPOS>CRYSIN
  253.2765    69.3819    82.4114    90.0000    90.0000    90.0000 1 1
@<TRIPOS>ATOM
       1 C           22.1685   131.7814    12.0099 C             1 RES     
       2 C           24.0175   133.3715    11.9257 C             1 RES     
       3 C           28.6829   133.6464    11.9258 C             1 RES     
       4 C           23.7662   128.3894    11.9258 C             1 RES     
       5 C           22.2287   129.7495    11.9258 C             1 RES     
       6 C           25.9542   132.0705    11.9257 C             1 RES     
       7 H           24.0727   134.4400    11.9257 H             1 RES     
       8 H           21.1975   132.8992    11.9258 H             1 RES     
       9 C           25.8802   129.8677    11.9257 C             1 RES     
      10 H           23.7053   127.3211    11.9258 H             1 RES     
      11 O           39.9680   128.3758    13.6693 O             1 RES     
      12 H           26.8208   129.3575    11.9257 H             1 RES     
      13 C           31.3027   132.4579    11.9871 C             1 RES     
      14 H           28.6871   134.2641    11.0522 H             1 RES     
      15 H           28.6863   134.1492    12.8703 H             1 RES     
      16 C           33.3332   134.0135    11.9258 C             1 RES     
      17 C           35.5260   129.6359    12.8325 C             1 RES     
      18 C           31.1549   129.4366    11.9258 C             1 RES     
      19 C           35.4804   132.7917    11.8839 C             1 RES     
      20 C           33.2406   128.4250    11.8072 C             1 RES     
      21 H           33.4419   127.1909    11.6638 H             1 RES     
      22 H           33.3618   135.0831    11.9258 H             1 RES     
      23 H           36.3227   132.4770    11.4817 H             1 RES     
      24 H           30.1889   128.9763    11.9258 H             1 RES     
      25 O           20.3061   128.8944    12.7378 O             1 RES     
      26 C           18.5046   130.1993    13.5747 C             1 RES     
      27 C           15.7411   129.2300    13.4540 C             1 RES     
      28 H           18.4449   130.6408    14.9749 H             1 RES     
      29 H           18.0163   130.5206    12.1244 H             1 RES     
      30 C           43.2311   133.9653    15.8682 C             1 RES     
      31 O           13.4650   130.6487    11.6616 O             1 RES     
      32 H           46.6004   135.2950    16.4092 H             1 RES     
      33 H           45.8637   135.3441    17.8779 H             1 RES     
      34 H           48.6579   124.0252    20.3809 H             1 RES     
      35 C           41.0125   129.5394    13.4645 C             1 RES     
      36 C           43.7184   128.1138    14.0824 C             1 RES     
      37 H           39.9975   130.4017    13.9609 H             1 RES     
      38 O           41.2683   130.1517    11.8713 O             1 RES     
      39 H           41.1981   130.6569    10.8058 H             1 RES     
      40 N           45.0948   129.2950    13.9517 N             1 RES     
      41 H           43.3733   127.6649    15.1313 H             1 RES     
      42 H           44.2298   127.2213    12.5038 H             1 RES     
      43 C           46.9024   128.6758    18.1705 C             1 RES     
      44 H           44.9733   130.5848    13.9505 H             1 RES     
      45 C           46.8435   131.0417    17.8299 C             1 RES     
      46 H           49.6916   123.8927    18.5970 H             1 RES     
      47 C           49.1241   127.1325    19.2950 C             1 RES     
      48 C           48.9978   132.9400    18.6029 C             1 RES     
      49 H           54.3070   136.8996    20.0213 H             1 RES     
      50 C           45.9289   134.7196    17.0116 C             1 RES     
      51 C           50.8535   131.4522    19.6108 C             1 RES     
      52 H           42.6851   134.8533    15.6270 H             1 RES     
      53 H           50.3882   124.1967    20.2088 H             1 RES     
      54 C           51.1177   128.4722    20.0584 C             1 RES     
      55 C           53.3798   132.8076    19.3247 C             1 RES     
      56 C           11.0893   131.0363    11.2515 C             1 RES     
      57 H           43.3698   133.3804    14.9831 H             1 RES     
      58 C           49.4419   124.3756    19.7426 C             1 RES     
      59 N           55.6118   127.3258    17.5687 N             1 RES     
      60 H           42.6844   133.3955    16.5903 H             1 RES     
      61 H           15.2785   129.4073    12.2300 H             1 RES     
      62 H           49.0032   134.0039    18.4888 H             1 RES     
      63 C           54.6689   136.2838    20.8180 C             1 RES     
      64 H           54.1460   132.2112    18.5333 H             1 RES     
      65 H           53.7561   133.0273    19.5779 H             1 RES     
      66 H           54.3877   136.7134    21.7568 H             1 RES     
      67 H           55.7354   136.2175    20.7613 H             1 RES     
      68 H           16.3191   127.9572    12.3005 H             1 RES     
      69 H           55.8366   128.0145    16.5582 H             1 RES     
      70 H           11.2128   130.8388    12.8610 H             1 RES     
      71 H           11.6716   131.6179    10.0000 H             1 RES     
      72 H           45.3505   127.5678    13.9496 H             1 RES     
      73 H           55.6751   125.9533    17.5687 H             1 RES     
      74 C           71.2846   127.2429    17.7885 C             1 RES     
      75 C           73.2229   128.6991    17.5117 C             1 RES     
      76 C           77.8881   128.6610    17.2354 C             1 RES     
      77 C           72.6550   123.7519    17.8062 C             1 RES     
      78 C           71.2101   125.2099    17.8157 C             1 RES     
      79 C           75.0693   127.2733    17.4766 C             1 RES     
      80 H           73.3461   129.7601    17.4485 H             1 RES     
      81 H           70.3836   128.4172    17.6961 H             1 RES     
      82 C           74.8552   125.0834    17.6047 C             1 RES     
      83 H           72.5262   122.6915    17.8697 H             1 RES     
      84 O           88.8980   122.7460    18.6388 O             1 RES     
      85 H           75.7597   124.5121    17.5808 H             1 RES     
      86 C           80.4258   127.3047    17.2168 C             1 RES     
      87 H           77.8797   129.2303    16.3296 H             1 RES     
      88 H           77.9797   129.2113    18.1484 H             1 RES     
      89 C           82.5441   128.7157    16.9546 C             1 RES     
      90 C           84.5034   124.2548    17.9822 C             1 RES     
      91 C           80.0823   124.3010    17.3340 C             1 RES     
      92 C           84.6027   127.3524    16.8615 C             1 RES     
      93 C           82.0885   123.1474    17.1560 C             1 RES     
      94 H           82.2019   121.8967    17.0713 H             1 RES     
      95 H           82.6408   129.7795    16.8929 H             1 RES     
      96 H           85.3978   126.9614    16.4312 H             1 RES     
      97 H           79.0907   123.9070    17.4139 H             1 RES     
      98 O           69.2886   124.5291    18.7808 O             1 RES     
      99 C           67.6269   125.9938    19.6424 C             1 RES     
     100 C           64.8050   125.2065    19.7311 C             1 RES     
     101 H           67.6789   126.5111    21.0166 H             1 RES     
     102 H           67.0747   126.2704    18.2059 H             1 RES     
     103 C           92.6358   128.2124    20.3337 C             1 RES     
     104 O           62.5214   126.6782    17.9919 O             1 RES     
     105 H           96.1092   129.3403    20.6097 H             1 RES     
     106 H           95.4658   129.5156    22.1123 H             1 RES     
     107 H           97.6767   118.1822    25.0880 H             1 RES     
     108 C           90.0005   123.8248    18.3107 C             1 RES     
     109 C           92.6420   122.2558    18.8555 C             1 RES     
     110 H           89.0738   124.7779    18.8138 H             1 RES     
     111 O           90.1995   124.3342    16.6738 O             1 RES     
     112 H           90.0984   124.7863    15.5871 H             1 RES     
     113 N           94.0806   123.3338    18.5818 N             1 RES     
     114 H           92.3320   121.8867    19.9457 H             1 RES     
     115 H           93.0006   121.2495    17.3035 H             1 RES     
     116 C           96.0929   122.8173    22.7210 C             1 RES     
     117 H           94.0417   124.6270    18.5148 H             1 RES     
     118 C           96.1647   125.1607    22.2517 C             1 RES     
     119 H           98.5919   117.8874    23.2593 H             1 RES     
     120 C           98.2746   121.1900    23.8046 C             1 RES     
     121 C           98.4778   126.9486    22.7949 C             1 RES     
     122 H          104.1036   130.6132    23.6891 H             1 RES     
     123 C           95.4394   128.8436    21.2802 C             1 RES     
     124 C          100.2916   125.3950    23.7796 C             1 RES     
     125 H           92.1341   129.1211    20.0738 H             1 RES     
     126 H           99.4011   118.2283    24.8100 H             1 RES     
     127 C          100.3914   122.4316    24.3787 C             1 RES     
     128 C          102.8777   126.5615    23.2768 C             1 RES     
     129 C           60.1550   127.2018    17.6941 C             1 RES     
     130 H           92.6840   127.5739    19.4766 H             1 RES     
     131 C           98.4421   118.4454    24.3881 C             1 RES     
     132 N          104.6472   120.8580    21.7100 N             1 RES     
     133 H           92.0978   127.7192    21.1162 H             1 RES     
     134 H           64.2826   125.3499    18.5269 H             1 RES     
     135 H           98.5443   128.0023    22.6210 H             1 RES     
     136 C          104.4723   130.0172    24.4977 C             1 RES     
     137 H          103.5558   125.8744    22.4786 H             1 RES     
     138 H          103.2816   126.7685    23.4958 H             1 RES     
     139 H          104.2754   130.5134    25.4251 H             1 RES     
     140 H          105.5271   129.8768    24.3853 H             1 RES     
     141 H           65.2310   123.8391    18.6206 H             1 RES     
     142 H          104.8550   121.4762    20.6513 H             1 RES     
     143 H           60.3612   127.0813    19.3028 H             1 RES     
     144 H           60.6977   127.6767    16.3813 H             1 RES     
     145 H           94.2251   121.5956    18.6626 H             1 RES     
     146 H          104.6228   119.4863    21.7837 H             1 RES     
     147 C          120.2681   119.7385    21.0572 C             1 RES     
     148 C          122.2754   121.0453    20.5909 C             1 RES     
     149 C          126.9040   120.6807    20.0566 C             1 RES     
     150 C          121.4118   116.1694    21.1945 C             1 RES     
     151 C          120.0659   117.7193    21.2028 C             1 RES     
     152 C          124.0218   119.4993    20.5328 C             1 RES     
     153 H          122.4619   122.0908    20.4613 H             1 RES     
     154 H          119.4399   120.9640    20.9494 H             1 RES     
     155 C          123.6765   117.3384    20.7957 C             1 RES     
     156 H          121.2197   115.1249    21.3247 H             1 RES     
     157 O          137.5783   114.1244    21.1726 O             1 RES     
     158 H          124.5397   116.7074    20.7534 H             1 RES     
     159 C          129.3444   119.1586    19.9725 C             1 RES     
     160 H          126.8780   121.2010    19.1221 H             1 RES     
     161 H          127.0846   121.2708    20.9307 H             1 RES     
     162 C          131.5290   120.4090    19.5133 C             1 RES     
     163 C          133.2576   115.8872    20.6789 C             1 RES     
     164 C          128.8177   116.1950    20.2775 C             1 RES     
     165 C          133.4873   118.9081    19.3820 C             1 RES     
     166 C          130.7322   114.9019    20.0528 C             1 RES     
     167 H          130.7603   113.6438    20.0324 H             1 RES     
     168 H          131.6894   121.4592    19.3864 H             1 RES     
     169 H          134.2289   118.4427    18.9305 H             1 RES     
     170 H          127.8095   115.8729    20.4348 H             1 RES     
     171 O          118.1657   117.2202    22.3106 O             1 RES     
     172 C          116.6550   118.8359    23.1800 C             1 RES     
     173 C          113.7989   118.2449    23.4706 C             1 RES     
     174 H          116.8215   119.4201    24.5179 H             1 RES     
     175 H          116.0371   119.0731    21.7634 H             1 RES     
     176 C          141.7512   119.4099    22.3456 C             1 RES     
     177 O          111.5143   119.7728    21.7818 O             1 RES     
     178 H          145.2997   120.3158    22.3630 H             1 RES     
     179 H          144.7593   120.6124    23.8869 H             1 RES     
     180 H          146.4164   109.3283    27.3672 H             1 RES     
     181 C          138.7259   115.1082    20.7232 C             1 RES     
     182 C          141.2897   113.3968    21.2069 C             1 RES     
     183 H          137.8935   116.1463    21.2229 H             1 RES     
     184 O          138.8593   115.5165    19.0516 O             1 RES     
     185 H          138.7227   115.9167    17.9486 H             1 RES     
     186 N          142.7753   114.3603    20.7929 N             1 RES     
     187 H          141.0222   113.1070    22.3317 H             1 RES     
     188 H          141.4905   112.2887    19.6963 H             1 RES     
     189 C          144.9932   113.9284    24.8356 C             1 RES     
     190 H          142.8150   115.6479    20.6555 H             1 RES     
     191 C          145.1863   116.2338    24.2318 C             1 RES     
     192 H          147.2005   108.8773    25.5098 H             1 RES     
     193 C          147.1274   112.2179    25.8852 C             1 RES     
     194 C          147.6369   117.8890    24.5434 C             1 RES     
     195 H          153.5280   121.2109    24.9139 H             1 RES     
     196 C          144.6407   119.9008    23.0967 C             1 RES     
     197 C          149.4032   116.2714    25.5109 C             1 RES     
     198 H          141.2939   120.3352    22.0634 H             1 RES     
     199 H          148.1206   109.2443    26.9911 H             1 RES     
     200 C          149.3495   113.3435    26.2692 C             1 RES     
     201 C          152.0239   117.2342    24.7994 C             1 RES     
     202 C          109.1727   120.4372    21.5879 C             1 RES     
     203 H          141.7075   118.7255    21.5243 H             1 RES     
     204 C          147.1540   109.5026    26.6120 C             1 RES     
     205 N          153.3299   111.3508    23.4595 N             1 RES     
     206 H          141.2304   118.9955    23.1834 H             1 RES     
     207 H          113.2161   118.3595    22.2913 H             1 RES     
     208 H          147.7598   118.9253    24.3070 H             1 RES     
     209 C          153.9054   120.6349    25.7328 C             1 RES     
     210 H          152.6082   116.4624    24.0045 H             1 RES     
     211 H          152.4525   117.4250    24.9835 H             1 RES     
     212 H          153.7961   121.1911    26.6404 H             1 RES     
     213 H          154.9406   120.4186    25.5696 H             1 RES     
     214 H          114.0701   116.7957    22.4167 H             1 RES     
     215 H          153.5133   111.8973    22.3577 H             1 RES     
     216 H          109.4661   120.3877    23.1867 H             1 RES     
     217 H          109.6655   120.8051    20.2221 H             1 RES     
     218 H          142.8133   112.6230    20.9631 H             1 RES     
     219 H          153.2225   109.9896    23.6115 H             1 RES     
     220 C          168.7811   109.1562    21.9980 C             1 RES     
     221 C          170.8364   110.2995    21.3474 C             1 RES     
     222 C          175.3922   109.5985    20.5764 C             1 RES     
     223 C          169.7011   105.5307    22.2718 C             1 RES     
     224 C          168.4596   107.1655    22.2681 C             1 RES     
     225 C          172.4741   108.6392    21.2788 C             1 RES     
     226 H          171.0811   111.3219    21.1489 H             1 RES     
     227 H          168.0278   110.4270    21.8679 H             1 RES     
     228 C          172.0080   106.5230    21.6817 C             1 RES     
     229 H          169.4509   104.5096    22.4711 H             1 RES     
     230 O          185.6744   102.4104    21.4608 O             1 RES     
     231 H          172.8251   105.8343    21.6268 H             1 RES     
     232 C          177.7214   107.9143    20.4417 C             1 RES     
     233 H          175.3439   110.0696    19.6170 H             1 RES     
     234 H          175.6618   110.2203    21.4044 H             1 RES     
     235 C          179.9500   108.9899    19.7914 C             1 RES     
     236 C          181.4531   104.4300    21.1111 C             1 RES     
     237 C          177.0259   105.0126    20.9420 C             1 RES     
     238 C          181.7974   107.3565    19.6355 C             1 RES     
     239 C          178.8373   103.5844    20.6837 C             1 RES     
     240 H          178.7839   102.3278    20.7325 H             1 RES     
     241 H          180.1692   110.0189    19.5969 H             1 RES     
     242 H          182.4796   106.8196    19.1701 H             1 RES     
     243 H          176.0103   104.7674    21.1733 H             1 RES     
     244 O          166.6008   106.8534    23.5068 O             1 RES     
     245 C          165.2506   108.6099    24.3670 C             1 RES     
     246 C          162.3849   108.2274    24.8497 C             1 RES     
     247 H          165.5333   109.2511    25.6585 H             1 RES     
     248 H          164.5658   108.8133    22.9760 H             1 RES     
     249 C          190.2381   107.4592    22.0992 C             1 RES     
     250 O          160.1060   109.8139    23.2080 O             1 RES     
     251 H          193.8318   108.1254    21.8671 H             1 RES     
     252 H          193.4031   108.5371    23.3998 H             1 RES     
     253 H          194.5416    97.3656    27.4114 H             1 RES     
     254 C          186.8535   103.2904    20.8932 C             1 RES     
     255 C          189.3273   101.4391    21.3283 C             1 RES     
     256 H          186.1202   104.4066    21.3795 H             1 RES     
     257 O          186.9130   103.6005    19.1965 O             1 RES     
     258 H          186.7369   103.9506    18.0821 H             1 RES     
     259 N          190.8440   102.2779    20.7783 N             1 RES     
     260 H          189.1092   101.2272    22.4808 H             1 RES     
     261 H          189.3668   100.2422    19.8736 H             1 RES     
     262 C          193.2665   101.9114    24.7085 C             1 RES     
     263 H          190.9575   103.5510    20.5667 H             1 RES     
     264 C          193.5698   104.1639    23.9661 C             1 RES     
     265 H          195.1834    96.7664    25.5413 H             1 RES     
     266 C          195.3459   100.1194    25.7317 C             1 RES     
     267 C          196.1351   105.6655    24.0465 C             1 RES     
     268 H          202.2377   108.6008    23.8994 H             1 RES     
     269 C          193.1925   107.7946    22.6588 C             1 RES     
     270 C          197.8492   103.9864    25.0032 C             1 RES     
     271 H          189.8247   108.3970    21.7915 H             1 RES     
     272 H          196.2116    97.1482    26.9458 H             1 RES     
     273 C          197.6541   101.1125    25.9269 C             1 RES     
     274 C          200.4790   104.7331    24.0932 C             1 RES     
     275 C          157.8041   110.6224    23.1083 C             1 RES     
     276 H          190.1021   106.7371    21.3215 H             1 RES     
     277 C          195.2425    97.4503    26.6075 C             1 RES     
     278 N          201.3252    98.7133    23.0154 N             1 RES     
     279 H          189.7427   107.1251    22.9869 H             1 RES     
     280 H          161.7414   108.3187    23.7003 H             1 RES     
     281 H          196.3096   106.6775    23.7457 H             1 RES     
     282 C          202.6256   108.0446    24.7271 C             1 RES     
     283 H          200.9645   103.8833    23.3115 H             1 RES     
     284 H          200.9291   104.9041    24.2420 H             1 RES     
     285 H          202.6061   108.6537    25.6066 H             1 RES     
     286 H          203.6333   107.7512    24.5187 H             1 RES     
     287 H          162.5000   106.7100    23.8655 H             1 RES     
     288 H          201.4772    99.1877    21.8762 H             1 RES     
     289 H          158.1883   110.6373    24.6884 H             1 RES     
     290 H          158.2372   110.8843    21.6986 H             1 RES     
     291 H          190.7812   100.5533    21.0436 H             1 RES     
     292 H          201.1405    97.3721    23.2496 H             1 RES     
     293 C          216.4908    95.4163    20.8179 C             1 RES     
     294 C          218.5723    96.3838    19.9900 C             1 RES     
     295 C          223.0203    95.3402    19.0061 C             1 RES     
     296 C          217.1924    91.7568    21.2433 C             1 RES     
     297 C          216.0596    93.4685    21.2171 C             1 RES     
     298 C          220.0939    94.6164    19.9235 C             1 RES     
     299 H          218.8695    97.3758    19.7209 H             1 RES     
     300 H          215.8135    96.7260    20.6588 H             1 RES     
     301 C          219.5186    92.5602    20.4703 C             1 RES     
     302 H          216.8899    90.7666    21.5135 H             1 RES     
     303 O          232.8576    87.5367    19.7170 O             1 RES     
     304 H          220.2855    91.8165    20.4086 H             1 RES     
     305 C          225.2252    93.4992    18.8363 C             1 RES     
     306 H          222.9451    95.7624    18.0259 H             1 RES     
     307 H          223.3778    95.9851    19.7815 H             1 RES     
     308 C          227.4752    94.3876    18.0029 C             1 RES     
     309 C          228.7604    89.8130    19.4910 C             1 RES     
     310 C          224.3771    90.6808    19.5372 C             1 RES     
     311 C          229.2022    92.6285    17.8360 C             1 RES     
     312 C          226.0752    89.1230    19.2588 C             1 RES     
     313 H          225.9448    87.8771    19.3811 H             1 RES     
     314 H          227.7476    95.3881    17.7388 H             1 RES     
     315 H          229.8198    92.0234    17.3642 H             1 RES     
     316 H          223.3636    90.5165    19.8384 H             1 RES     
     317 O          214.2617    93.3469    22.5734 O             1 RES     
     318 C          213.0797    95.2325    23.4076 C             1 RES     
     319 C          210.2294    95.0684    24.0706 C             1 RES     
     320 H          213.4791    95.9202    24.6432 H             1 RES     
     321 H          212.3278    95.4079    22.0479 H             1 RES     
     322 C          237.7638    92.2955    19.8141 C             1 RES     
     323 O          207.9626    96.7155    22.4723 O             1 RES     
     324 H          241.3725    92.7067    19.3443 H             1 RES     
     325 H          241.0628    93.2259    20.8729 H             1 RES     
     326 H          241.7235    82.2294    25.4368 H             1 RES     
     327 C          234.0546    88.3048    19.0358 C             1 RES     
     328 C          236.4268    86.3175    19.4353 C             1 RES     
     329 H          233.4242    89.4916    19.4988 H             1 RES     
     330 O          234.0327    88.5208    17.3237 O             1 RES     
     331 H          233.8133    88.8229    16.2029 H             1 RES     
     332 N          237.9585    87.0231    18.7550 N             1 RES     
     333 H          236.2647    86.1815    20.6083 H             1 RES     
     334 H          236.3033    85.0460    18.0503 H             1 RES     
     335 C          240.5822    86.7021    22.5579 C             1 RES     
     336 H          238.1402    88.2728    18.4661 H             1 RES     
     337 C          240.9839    88.8872    21.6742 C             1 RES     
     338 H          242.2135    81.4912    23.5704 H             1 RES     
     339 C          242.6004    84.8312    23.5624 C             1 RES     
     340 C          243.6399    90.2160    21.5263 C             1 RES     
     341 H          249.8975    92.7246    20.8732 H             1 RES     
     342 C          240.7617    92.4613    20.1878 C             1 RES     
     343 C          245.2973    88.4784    22.4786 C             1 RES     
     344 H          237.3935    93.2413    19.4777 H             1 RES     
     345 H          243.3456    81.8766    24.8915 H             1 RES     
     346 C          244.9747    85.6765    23.5721 C             1 RES     
     347 C          247.9105    88.9988    21.3824 C             1 RES     
     348 C          205.7150    97.6697    22.4561 C             1 RES     
     349 H          237.5360    91.5442    19.0871 H             1 RES     
     350 C          242.3794    82.2247    24.5914 C             1 RES     
     351 N          248.3057    82.8876    20.5994 N             1 RES     
     352 H          237.3018    92.0423    20.7455 H             1 RES     
     353 H          209.5257    95.1421    22.9557 H             1 RES     
     354 H          243.8604    91.1968    21.1598 H             1 RES     
     355 C          250.2978    92.1879    21.7079 C             1 RES     
     356 H          248.2936    88.0785    20.6238 H             1 RES     
     357 H          248.3787    89.1469    21.4959 H             1 RES     
     358 H          250.3695    92.8423    22.5515 H             1 RES     
     359 H          251.2706    91.8173    21.4603 H             1 RES     
     360 H          210.1887    93.4971    23.1684 H             1 RES     
     361 H          248.4196    83.2903    19.4286 H             1 RES     
     362 H          206.1928    97.7419    24.0090 H             1 RES     
     363 H          206.0793    97.8278    21.0119 H             1 RES     
     364 H           10.0000   130.9981    11.1579 H             1 RES     
     365 H          249.3339    82.5597    20.4203 H             1 RES     
     366 C           22.1685   131.7814    42.0099 C             1 RES     
     367 C           24.0175   133.3715    41.9257 C             1 RES     
     368 C           28.6829   133.6464    41.9258 C             1 RES     
     369 C           23.7662   128.3894    41.9258 C             1 RES     
     370 C           22.2287   129.7495    41.9258 C             1 RES     
     371 C           25.9542   132.0705    41.9257 C             1 RES     
     372 H           24.0727   134.4400    41.9257 H             1 RES     
     373 H           21.1975   132.8992    41.9258 H             1 RES     
     374 C           25.8802   129.8677    41.9257 C             1 RES     
     375 H           23.7053   127.3211    41.9258 H             1 RES     
     376 O           39.9680   128.3758    43.6693 O             1 RES     
     377 H           26.8208   129.3575    41.9257 H             1 RES     
     378 C           31.3027   132.4579    41.9871 C             1 RES     
     379 H           28.6871   134.2641    41.0522 H             1 RES     
     380 H           28.6863   134.1492    42.8703 H             1 RES     
     381 C           33.3332   134.0135    41.9258 C             1 RES     
     382 C           35.5260   129.6359    42.8325 C             1 RES     
     383 C           31.1549   129.4366    41.9258 C             1 RES     
     384 C           35.4804   132.7917    41.8839 C             1 RES     
     385 C           33.2406   128.4250    41.8072 C             1 RES     
     386 H           33.4419   127.1909    41.6638 H             1 RES     
     387 H           33.3618   135.0831    41.9258 H             1 RES     
     388 H           36.3227   132.4770    41.4817 H             1 RES     
     389 H           30.1889   128.9763    41.9258 H             1 RES     
     390 O           20.3061   128.8944    42.7378 O             1 RES     
     391 C           18.5046   130.1993    43.5747 C             1 RES     
     392 C           15.7411   129.2300    43.4540 C             1 RES     
     393 H           18.4449   130.6408    44.9749 H             1 RES     
     394 H           18.0163   130.5206    42.1244 H             1 RES     
     395 C           43.2311   133.9653    45.8682 C             1 RES     
     396 O           13.4650   130.6487    41.6616 O             1 RES     
     397 H           46.6004   135.2950    46.4092 H             1 RES     
     398 H           45.8637   135.3441    47.8779 H             1 RES     
     399 H           48.6579   124.0252    50.3809 H             1 RES     
     400 C           41.0125   129.5394    43.4645 C             1 RES     
     401 C           43.7184   128.1138    44.0824 C             1 RES     
     402 H           39.9975   130.4017    43.9609 H             1 RES     
     403 O           41.2683   130.1517    41.8713 O             1 RES     
     404 H           41.1981   130.6569    40.8058 H             1 RES     
     405 N           45.0948   129.2950    43.9517 N             1 RES     
     406 H           43.3733   127.6649    45.1313 H             1 RES     
     407 H           44.2298   127.2213    42.5038 H             1 RES     
     408 C           46.9024   128.6758    48.1705 C             1 RES     
     409 H           44.9733   130.5848    43.9505 H             1 RES     
     410 C           46.8435   131.0417    47.8299 C             1 RES     
     411 H           49.6916   123.8927    48.5970 H             1 RES     
     412 C           49.1241   127.1325    49.2950 C             1 RES     
     413 C           48.9978   132.9400    48.6029 C             1 RES     
     414 H           54.3070   136.8996    50.0213 H             1 RES     
     415 C           45.9289   134.7196    47.0116 C             1 RES     
     416 C           50.8535   131.4522    49.6108 C             1 RES     
     417 H           42.6851   134.8533    45.6270 H             1 RES     
     418 H           50.3882   124.1967    50.2088 H             1 RES     
     419 C           51.1177   128.4722    50.0584 C             1 RES     
     420 C           53.3798   132.8076    49.3247 C             1 RES     
     421 C           11.0893   131.0363    41.2515 C             1 RES     
     422 H           43.3698   133.3804    44.9831 H             1 RES     
     423 C           49.4419   124.3756    49.7426 C             1 RES     
     424 N           55.6118   127.3258    47.5687 N             1 RES     
     425 H           42.6844   133.3955    46.5903 H             1 RES     
     426 H           15.2785   129.4073    42.2300 H             1 RES     
     427 H           49.0032   134.0039    48.4888 H             1 RES     
     428 C           54.6689   136.2838    50.8180 C             1 RES     
     429 H           54.1460   132.2112    48.5333 H             1 RES     
     430 H           53.7561   133.0273    49.5779 H             1 RES     
     431 H           54.3877   136.7134    51.7568 H             1 RES     
     432 H           55.7354   136.2175    50.7613 H             1 RES     
     433 H           16.3191   127.9572    42.3005 H             1 RES     
     434 H           55.8366   128.0145    46.5582 H             1 RES     
     435 H           11.2128   130.8388    42.8610 H             1 RES     
     436 H           11.6716   131.6179    40.0000 H             1 RES     
     437 C           71.2846   127.2429    47.7885 C             1 RES     
     438 C           73.2229   128.6991    47.5117 C             1 RES     
     439 C           77.8881   128.6610    47.2354 C             1 RES     
     440 C           72.6550   123.7519    47.8062 C             1 RES     
     441 C           71.2101   125.2099    47.8157 C             1 RES     
     442 C           75.0693   127.2733    47.4766 C             1 RES     
     443 H           73.3461   129.7601    47.4485 H             1 RES     
     444 H           70.3836   128.4172    47.6961 H             1 RES     
     445 C           74.8552   125.0834    47.6047 C             1 RES     
     446 H           72.5262   122.6915    47.8697 H             1 RES     
     447 O           88.8980   122.7460    48.6388 O             1 RES     
     448 H           75.7597   124.5121    47.5808 H             1 RES     
     449 C           80.4258   127.3047    47.2168 C             1 RES     
     450 H           77.8797   129.2303    46.3296 H             1 RES     
     451 H           77.9797   129.2113    48.1484 H             1 RES     
     452 C           82.5441   128.7157    46.9546 C             1 RES     
     453 C           84.5034   124.2548    47.9822 C             1 RES     
     454 C           80.0823   124.3010    47.3340 C             1 RES     
     455 C           84.6027   127.3524    46.8615 C             1 RES     
     456 C           82.0885   123.1474    47.1560 C             1 RES     
     457 H           82.2019   121.8967    47.0713 H             1 RES     
     458 H           82.6408   129.7795    46.8929 H             1 RES     
     459 H           85.3978   126.9614    46.4312 H             1 RES     
     460 H           79.0907   123.9070    47.4139 H             1 RES     
     461 O           69.2886   124.5291    48.7808 O             1 RES     
     462 C           67.6269   125.9938    49.6424 C             1 RES     
     463 C           64.8050   125.2065    49.7311 C             1 RES     
     464 H           67.6789   126.5111    51.0166 H             1 RES     
     465 H           67.0747   126.2704    48.2059 H             1 RES     
     466 C           92.6358   128.2124    50.3337 C             1 RES     
     467 O           62.5214   126.6782    47.9919 O             1 RES     
     468 H           96.1092   129.3403    50.6097 H             1 RES     
     469 H           95.4658   129.5156    52.1123 H             1 RES     
     470 H           97.6767   118.1822    55.0880 H             1 RES     
     471 C           90.0005   123.8248    48.3107 C             1 RES     
     472 C           92.6420   122.2558    48.8555 C             1 RES     
     473 H           89.0738   124.7779    48.8138 H             1 RES     
     474 O           90.1995   124.3342    46.6738 O             1 RES     
     475 H           90.0984   124.7863    45.5871 H             1 RES     
     476 N           94.0806   123.3338    48.5818 N             1 RES     
     477 H           92.3320   121.8867    49.9457 H             1 RES     
     478 H           93.0006   121.2495    47.3035 H             1 RES     
     479 C           96.0929   122.8173    52.7210 C             1 RES     
     480 H           94.0417   124.6270    48.5148 H             1 RES     
     481 C           96.1647   125.1607    52.2517 C             1 RES     
     482 H           98.5919   117.8874    53.2593 H             1 RES     
     483 C           98.2746   121.1900    53.8046 C             1 RES     
     484 C           98.4778   126.9486    52.7949 C             1 RES     
     485 H          104.1036   130.6132    53.6891 H             1 RES     
     486 C           95.4394   128.8436    51.2802 C             1 RES     
     487 C          100.2916   125.3950    53.7796 C             1 RES     
     488 H           92.1341   129.1211    50.0738 H             1 RES     
     489 H           99.4011   118.2283    54.8100 H             1 RES     
     490 C          100.3914   122.4316    54.3787 C             1 RES     
     491 C          102.8777   126.5615    53.2768 C             1 RES     
     492 C           60.1550   127.2018    47.6941 C             1 RES     
     493 H           92.6840   127.5739    49.4766 H             1 RES     
     494 C           98.4421   118.4454    54.3881 C             1 RES     
     495 N          104.6472   120.8580    51.7100 N             1 RES     
     496 H           92.0978   127.7192    51.1162 H             1 RES     
     497 H           64.2826   125.3499    48.5269 H             1 RES     
     498 H           98.5443   128.0023    52.6210 H             1 RES     
     499 C          104.4723   130.0172    54.4977 C             1 RES     
     500 H          103.5558   125.8744    52.4786 H             1 RES     
     501 H          103.2816   126.7685    53.4958 H             1 RES     
     502 H          104.2754   130.5134    55.4251 H             1 RES     
     503 H          105.5271   129.8768    54.3853 H             1 RES     
     504 H           65.2310   123.8391    48.6206 H             1 RES     
     505 H          104.8550   121.4762    50.6513 H             1 RES     
     506 H           60.3612   127.0813    49.3028 H             1 RES     
     507 H           60.6977   127.6767    46.3813 H             1 RES     
     508 H           94.2251   121.5956    48.6626 H             1 RES     
     509 H          104.6228   119.4863    51.7837 H             1 RES     
     510 C          120.2681   119.7385    51.0572 C             1 RES     
     511 C          122.2754   121.0453    50.5909 C             1 RES     
     512 C          126.9040   120.6807    50.0566 C             1 RES     
     513 C          121.4118   116.1694    51.1945 C             1 RES     
     514 C          120.0659   117.7193    51.2028 C             1 RES     
     515 C          124.0218   119.4993    50.5328 C             1 RES     
     516 H          122.4619   122.0908    50.4613 H             1 RES     
     517 H          119.4399   120.9640    50.9494 H             1 RES     
     518 C          123.6765   117.3384    50.7957 C             1 RES     
     519 H          121.2197   115.1249    51.3247 H             1 RES     
     520 O          137.5783   114.1244    51.1726 O             1 RES     
     521 H          124.5397   116.7074    50.7534 H             1 RES     
     522 C          129.3444   119.1586    49.9725 C             1 RES     
     523 H          126.8780   121.2010    49.1221 H             1 RES     
     524 H          127.0846   121.2708    50.9307 H             1 RES     
     525 C          131.5290   120.4090    49.5133 C             1 RES     
     526 C          133.2576   115.8872    50.6789 C             1 RES     
     527 C          128.8177   116.1950    50.2775 C             1 RES     
     528 C          133.4873   118.9081    49.3820 C             1 RES     
     529 C          130.7322   114.9019    50.0528 C             1 RES     
     530 H          130.7603   113.6438    50.0324 H             1 RES     
     531 H          131.6894   121.4592    49.3864 H             1 RES     
     532 H          134.2289   118.4427    48.9305 H             1 RES     
     533 H          127.8095   115.8729    50.4348 H             1 RES     
     534 O          118.1657   117.2202    52.3106 O             1 RES     
     535 C          116.6550   118.8359    53.1800 C             1 RES     
     536 C          113.7989   118.2449    53.4706 C             1 RES     
     537 H          116.8215   119.4201    54.5179 H             1 RES     
     538 H          116.0371   119.0731    51.7634 H             1 RES     
     539 C          141.7512   119.4099    52.3456 C             1 RES     
     540 O          111.5143   119.7728    51.7818 O             1 RES     
     541 H          145.2997   120.3158    52.3630 H             1 RES     
     542 H          144.7593   120.6124    53.8869 H             1 RES     
     543 H          146.4164   109.3283    57.3672 H             1 RES     
     544 C          138.7259   115.1082    50.7232 C             1 RES     
     545 C          141.2897   113.3968    51.2069 C             1 RES     
     546 H          137.8935   116.1463    51.2229 H             1 RES     
     547 O          138.8593   115.5165    49.0516 O             1 RES     
     548 H          138.7227   115.9167    47.9486 H             1 RES     
     549 N          142.7753   114.3603    50.7929 N             1 RES     
     550 H          141.0222   113.1070    52.3317 H             1 RES     
     551 H          141.4905   112.2887    49.6963 H             1 RES     
     552 C          144.9932   113.9284    54.8356 C             1 RES     
     553 H          142.8150   115.6479    50.6555 H             1 RES     
     554 C          145.1863   116.2338    54.2318 C             1 RES     
     555 H          147.2005   108.8773    55.5098 H             1 RES     
     556 C          147.1274   112.2179    55.8852 C             1 RES     
     557 C          147.6369   117.8890    54.5434 C             1 RES     
     558 H          153.5280   121.2109    54.9139 H             1 RES     
     559 C          144.6407   119.9008    53.0967 C             1 RES     
     560 C          149.4032   116.2714    55.5109 C             1 RES     
     561 H          141.2939   120.3352    52.0634 H             1 RES     
     562 H          148.1206   109.2443    56.9911 H             1 RES     
     563 C          149.3495   113.3435    56.2692 C             1 RES     
     564 C          152.0239   117.2342    54.7994 C             1 RES     
     565 C          109.1727   120.4372    51.5879 C             1 RES     
     566 H          141.7075   118.7255    51.5243 H             1 RES     
     567 C          147.1540   109.5026    56.6120 C             1 RES     
     568 N          153.3299   111.3508    53.4595 N             1 RES     
     569 H          141.2304   118.9955    53.1834 H             1 RES     
     570 H          113.2161   118.3595    52.2913 H             1 RES     
     571 H          147.7598   118.9253    54.3070 H             1 RES     
     572 C          153.9054   120.6349    55.7328 C             1 RES     
     573 H          152.6082   116.4624    54.0045 H             1 RES     
     574 H          152.4525   117.4250    54.9835 H             1 RES     
     575 H          153.7961   121.1911    56.6404 H             1 RES     
     576 H          154.9406   120.4186    55.5696 H             1 RES     
     577 H          114.0701   116.7957    52.4167 H             1 RES     
     578 H          153.5133   111.8973    52.3577 H             1 RES     
     579 H          109.4661   120.3877    53.1867 H             1 RES     
     580 H          109.6655   120.8051    50.2221 H             1 RES     
     581 H          142.8133   112.6230    50.9631 H             1 RES     
     582 H          153.2225   109.9896    53.6115 H             1 RES     
     583 C          168.7811   109.1562    51.9980 C             1 RES     
     584 C          170.8364   110.2995    51.3474 C             1 RES     
     585 C          175.3922   109.5985    50.5764 C             1 RES     
     586 C          169.7011   105.5307    52.2718 C             1 RES     
     587 C          168.4596   107.1655    52.2681 C             1 RES     
     588 C          172.4741   108.6392    51.2788 C             1 RES     
     589 H          171.0811   111.3219    51.1489 H             1 RES     
     590 H          168.0278   110.4270    51.8679 H             1 RES     
     591 C          172.0080   106.5230    51.6817 C             1 RES     
     592 H          169.4509   104.5096    52.4711 H             1 RES     
     593 O          185.6744   102.4104    51.4608 O             1 RES     
     594 H          172.8251   105.8343    51.6268 H             1 RES     
     595 C          177.7214   107.9143    50.4417 C             1 RES     
     596 H          175.3439   110.0696    49.6170 H             1 RES     
     597 H          175.6618   110.2203    51.4044 H             1 RES     
     598 C          179.9500   108.9899    49.7914 C             1 RES     
     599 C          181.4531   104.4300    51.1111 C             1 RES     
     600 C          177.0259   105.0126    50.9420 C             1 RES     
     601 C          181.7974   107.3565    49.6355 C             1 RES     
     602 C          178.8373   103.5844    50.6837 C             1 RES     
     603 H          178.7839   102.3278    50.7325 H             1 RES     
     604 H          180.1692   110.0189    49.5969 H             1 RES     
     605 H          182.4796   106.8196    49.1701 H             1 RES     
     606 H          176.0103   104.7674    51.1733 H             1 RES     
     607 O          166.6008   106.8534    53.5068 O             1 RES     
     608 C          165.2506   108.6099    54.3670 C             1 RES     
     609 C          162.3849   108.2274    54.8497 C             1 RES     
     610 H          165.5333   109.2511    55.6585 H             1 RES     
     611 H          164.5658   108.8133    52.9760 H             1 RES     
     612 C          190.2381   107.4592    52.0992 C             1 RES     
     613 O          160.1060   109.8139    53.2080 O             1 RES     
     614 H          193.8318   108.1254    51.8671 H             1 RES     
     615 H          193.4031   108.5371    53.3998 H             1 RES     
     616 H          194.5416    97.3656    57.4114 H             1 RES     
     617 C          186.8535   103.2904    50.8932 C             1 RES     
     618 C          189.3273   101.4391    51.3283 C             1 RES     
     619 H          186.1202   104.4066    51.3795 H             1 RES     
     620 O          186.9130   103.6005    49.1965 O             1 RES     
     621 H          186.7369   103.9506    48.0821 H             1 RES     
     622 N          190.8440   102.2779    50.7783 N             1 RES     
     623 H          189.1092   101.2272    52.4808 H             1 RES     
     624 H          189.3668   100.2422    49.8736 H             1 RES     
     625 C          193.2665   101.9114    54.7085 C             1 RES     
     626 H          190.9575   103.5510    50.5667 H             1 RES     
     627 C          193.5698   104.1639    53.9661 C             1 RES     
     628 H          195.1834    96.7664    55.5413 H             1 RES     
     629 C          195.3459   100.1194    55.7317 C             1 RES     
     630 C          196.1351   105.6655    54.0465 C             1 RES     
     631 H          202.2377   108.6008    53.8994 H             1 RES     
     632 C          193.1925   107.7946    52.6588 C             1 RES     
     633 C          197.8492   103.9864    55.0032 C             1 RES     
     634 H          189.8247   108.3970    51.7915 H             1 RES     
     635 H          196.2116    97.1482    56.9458 H             1 RES     
     636 C          197.6541   101.1125    55.9269 C             1 RES     
     637 C          200.4790   104.7331    54.0932 C             1 RES     
     638 C          157.8041   110.6224    53.1083 C             1 RES     
     639 H          190.1021   106.7371    51.3215 H             1 RES     
     640 C          195.2425    97.4503    56.6075 C             1 RES     
     641 N          201.3252    98.7133    53.0154 N             1 RES     
     642 H          189.7427   107.1251    52.9869 H             1 RES     
     643 H          161.7414   108.3187    53.7003 H             1 RES     
     644 H          196.3096   106.6775    53.7457 H             1 RES     
     645 C          202.6256   108.0446    54.7271 C             1 RES     
     646 H          200.9645   103.8833    53.3115 H             1 RES     
     647 H          200.9291   104.9041    54.2420 H             1 RES     
     648 H          202.6061   108.6537    55.6066 H             1 RES     
     649 H          203.6333   107.7512    54.5187 H             1 RES     
     650 H          162.5000   106.7100    53.8655 H             1 RES     
     651 H          201.4772    99.1877    51.8762 H             1 RES     
     652 H          158.1883   110.6373    54.6884 H             1 RES     
     653 H          158.2372   110.8843    51.6986 H             1 RES     
     654 H          190.7812   100.5533    51.0436 H             1 RES     
     655 H          201.1405    97.3721    53.2496 H             1 RES     
     656 C          216.4908    95.4163    50.8179 C             1 RES     
     657 C          218.5723    96.3838    49.9900 C             1 RES     
     658 C          223.0203    95.3402    49.0061 C             1 RES     
     659 C          217.1924    91.7568    51.2433 C             1 RES     
     660 C          216.0596    93.4685    51.2171 C             1 RES     
     661 C          220.0939    94.6164    49.9235 C             1 RES     
     662 H          218.8695    97.3758    49.7209 H             1 RES     
     663 H          215.8135    96.7260    50.6588 H             1 RES     
     664 C          219.5186    92.5602    50.4703 C             1 RES     
     665 H          216.8899    90.7666    51.5135 H             1 RES     
     666 O          232.8576    87.5367    49.7170 O             1 RES     
     667 H          220.2855    91.8165    50.4086 H             1 RES     
     668 C          225.2252    93.4992    48.8363 C             1 RES     
     669 H          222.9451    95.7624    48.0259 H             1 RES     
     670 H          223.3778    95.9851    49.7815 H             1 RES     
     671 C          227.4752    94.3876    48.0029 C             1 RES     
     672 C          228.7604    89.8130    49.4910 C             1 RES     
     673 C          224.3771    90.6808    49.5372 C             1 RES     
     674 C          229.2022    92.6285    47.8360 C             1 RES     
     675 C          226.0752    89.1230    49.2588 C             1 RES     
     676 H          225.9448    87.8771    49.3811 H             1 RES     
     677 H          227.7476    95.3881    47.7388 H             1 RES     
     678 H          229.8198    92.0234    47.3642 H             1 RES     
     679 H          223.3636    90.5165    49.8384 H             1 RES     
     680 O          214.2617    93.3469    52.5734 O             1 RES     
     681 C          213.0797    95.2325    53.4076 C             1 RES     
     682 C          210.2294    95.0684    54.0706 C             1 RES     
     683 H          213.4791    95.9202    54.6432 H             1 RES     
     684 H          212.3278    95.4079    52.0479 H             1 RES     
     685 C          237.7638    92.2955    49.8141 C             1 RES     
     686 O          207.9626    96.7155    52.4723 O             1 RES     
     687 H          241.3725    92.7067    49.3443 H             1 RES     
     688 H          241.0628    93.2259    50.8729 H             1 RES     
     689 H          241.7235    82.2294    55.4368 H             1 RES     
     690 C          234.0546    88.3048    49.0358 C             1 RES     
     691 C          236.4268    86.3175    49.4353 C             1 RES     
     692 H          233.4242    89.4916    49.4988 H             1 RES     
     693 O          234.0327    88.5208    47.3237 O             1 RES     
     694 H          233.8133    88.8229    46.2029 H             1 RES     
     695 N          237.9585    87.0231    48.7550 N             1 RES     
     696 H          236.2647    86.1815    50.6083 H             1 RES     
     697 H          236.3033    85.0460    48.0503 H             1 RES     
     698 C          240.5822    86.7021    52.5579 C             1 RES     
     699 H          238.1402    88.2728    48.4661 H             1 RES     
     700 C          240.9839    88.8872    51.6742 C             1 RES     
     701 H          242.2135    81.4912    53.5704 H             1 RES     
     702 C          242.6004    84.8312    53.5624 C             1 RES     
     703 C          243.6399    90.2160    51.5263 C             1 RES     
     704 H          249.8975    92.7246    50.8732 H             1 RES     
     705 C          240.7617    92.4613    50.1878 C             1 RES     
     706 C          245.2973    88.4784    52.4786 C             1 RES     
     707 H          237.3935    93.2413    49.4777 H             1 RES     
     708 H          243.3456    81.8766    54.8915 H             1 RES     
     709 C          244.9747    85.6765    53.5721 C             1 RES     
     710 C          247.9105    88.9988    51.3824 C             1 RES     
     711 C          205.7150    97.6697    52.4561 C             1 RES     
     712 H          237.5360    91.5442    49.0871 H             1 RES     
     713 C          242.3794    82.2247    54.5914 C             1 RES     
     714 N          248.3057    82.8876    50.5994 N             1 RES     
     715 H          237.3018    92.0423    50.7455 H             1 RES     
     716 H          209.5257    95.1421    52.9557 H             1 RES     
     717 H          243.8604    91.1968    51.1598 H             1 RES     
     718 C          250.2978    92.1879    51.7079 C             1 RES     
     719 H          248.2936    88.0785    50.6238 H             1 RES     
     720 H          248.3787    89.1469    51.4959 H             1 RES     
     721 H          250.3695    92.8423    52.5515 H             1 RES     
     722 H          251.2706    91.8173    51.4603 H             1 RES     
     723 H          210.1887    93.4971    53.1684 H             1 RES     
     724 H          248.4196    83.2903    49.4286 H             1 RES     
     725 H          206.1928    97.7419    54.0090 H             1 RES     
     726 H          206.0793    97.8278    51.0119 H             1 RES     
     727 H           10.0000   130.9981    41.1579 H             1 RES     
     728 H          249.3339    82.5597    50.4203 H             1 RES     
     729 C           22.1685   131.7814    72.0099 C             1 RES     
     730 C           24.0175   133.3715    71.9257 C             1 RES     
     731 C           28.6829   133.6464    71.9258 C             1 RES     
     732 C           23.7662   128.3894    71.9258 C             1 RES     
     733 C           22.2287   129.7495    71.9258 C             1 RES     
     734 C           25.9542   132.0705    71.9257 C             1 RES     
     735 H           24.0727   134.4400    71.9257 H             1 RES     
     736 H           21.1975   132.8992    71.9258 H             1 RES     
     737 C           25.8802   129.8677    71.9257 C             1 RES     
     738 H           23.7053   127.3211    71.9258 H             1 RES     
     739 O           39.9680   128.3758    73.6693 O             1 RES     
     740 H           26.8208   129.3575    71.9257 H             1 RES     
     741 C           31.3027   132.4579    71.9871 C             1 RES     
     742 H           28.6871   134.2641    71.0522 H             1 RES     
     743 H           28.6863   134.1492    72.8703 H             1 RES     
     744 C           33.3332   134.0135    71.9258 C             1 RES     
     745 C           35.5260   129.6359    72.8325 C             1 RES     
     746 C           31.1549   129.4366    71.9258 C             1 RES     
     747 C           35.4804   132.7917    71.8839 C             1 RES     
     748 C           33.2406   128.4250    71.8072 C             1 RES     
     749 H           33.4419   127.1909    71.6638 H             1 RES     
     750 H           33.3618   135.0831    71.9258 H             1 RES     
     751 H           36.3227   132.4770    71.4817 H             1 RES     
     752 H           30.1889   128.9763    71.9258 H             1 RES     
     753 O           20.3061   128.8944    72.7378 O             1 RES     
     754 C           18.5046   130.1993    73.5747 C             1 RES     
     755 C           15.7411   129.2300    73.4540 C             1 RES     
     756 H           18.4449   130.6408    74.9749 H             1 RES     
     757 H           18.0163   130.5206    72.1244 H             1 RES     
     758 C           43.2311   133.9653    75.8682 C             1 RES     
     759 O           13.4650   130.6487    71.6616 O             1 RES     
     760 H           46.6004   135.2950    76.4092 H             1 RES     
     761 H           45.8637   135.3441    77.8779 H             1 RES     
     762 H           48.6579   124.0252    80.3809 H             1 RES     
     763 C           41.0125   129.5394    73.4645 C             1 RES     
     764 C           43.7184   128.1138    74.0824 C             1 RES     
     765 H           39.9975   130.4017    73.9609 H             1 RES     
     766 O           41.2683   130.1517    71.8713 O             1 RES     
     767 H           41.1981   130.6569    70.8058 H             1 RES     
     768 N           45.0948   129.2950    73.9517 N             1 RES     
     769 H           43.3733   127.6649    75.1313 H             1 RES     
     770 H           44.2298   127.2213    72.5038 H             1 RES     
     771 C           46.9024   128.6758    78.1705 C             1 RES     
     772 H           44.9733   130.5848    73.9505 H             1 RES     
     773 C           46.8435   131.0417    77.8299 C             1 RES     
     774 H           49.6916   123.8927    78.5970 H             1 RES     
     775 C           49.1241   127.1325    79.2950 C             1 RES     
     776 C           48.9978   132.9400    78.6029 C             1 RES     
     777 H           54.3070   136.8996    80.0213 H             1 RES     
     778 C           45.9289   134.7196    77.0116 C             1 RES     
     779 C           50.8535   131.4522    79.6108 C             1 RES     
     780 H           42.6851   134.8533    75.6270 H             1 RES     
     781 H           50.3882   124.1967    80.2088 H             1 RES     
     782 C           51.1177   128.4722    80.0584 C             1 RES     
     783 C           53.3798   132.8076    79.3247 C             1 RES     
     784 C           11.0893   131.0363    71.2515 C             1 RES     
     785 H           43.3698   133.3804    74.9831 H             1 RES     
     786 C           49.4419   124.3756    79.7426 C             1 RES     
     787 N           55.6118   127.3258    77.5687 N             1 RES     
     788 H           42.6844   133.3955    76.5903 H             1 RES     
     789 H           15.2785   129.4073    72.2300 H             1 RES     
     790 H           49.0032   134.0039    78.4888 H             1 RES     
     791 C           54.6689   136.2838    80.8180 C             1 RES     
     792 H           54.1460   132.2112    78.5333 H             1 RES     
     793 H           53.7561   133.0273    79.5779 H             1 RES     
     794 H           54.3877   136.7134    81.7568 H             1 RES     
     795 H           55.7354   136.2175    80.7613 H             1 RES     
     796 H           16.3191   127.9572    72.3005 H             1 RES     
     797 H           55.8366   128.0145    76.5582 H             1 RES     
     798 H           11.2128   130.8388    72.8610 H             1 RES     
     799 H           11.6716   131.6179    70.0000 H             1 RES     
     800 C           71.2846   127.2429    77.7885 C             1 RES     
     801 C           73.2229   128.6991    77.5117 C             1 RES     
     802 C           77.8881   128.6610    77.2354 C             1 RES     
     803 C           72.6550   123.7519    77.8062 C             1 RES     
     804 C           71.2101   125.2099    77.8157 C             1 RES     
     805 C           75.0693   127.2733    77.4766 C             1 RES     
     806 H           73.3461   129.7601    77.4485 H             1 RES     
     807 H           70.3836   128.4172    77.6961 H             1 RES     
     808 C           74.8552   125.0834    77.6047 C             1 RES     
     809 H           72.5262   122.6915    77.8697 H             1 RES     
     810 O           88.8980   122.7460    78.6388 O             1 RES     
     811 H           75.7597   124.5121    77.5808 H             1 RES     
     812 C           80.4258   127.3047    77.2168 C             1 RES     
     813 H           77.8797   129.2303    76.3296 H             1 RES     
     814 H           77.9797   129.2113    78.1484 H             1 RES     
     815 C           82.5441   128.7157    76.9546 C             1 RES     
     816 C           84.5034   124.2548    77.9822 C             1 RES     
     817 C           80.0823   124.3010    77.3340 C             1 RES     
     818 C           84.6027   127.3524    76.8615 C             1 RES     
     819 C           82.0885   123.1474    77.1560 C             1 RES     
     820 H           82.2019   121.8967    77.0713 H             1 RES     
     821 H           82.6408   129.7795    76.8929 H             1 RES     
     822 H           85.3978   126.9614    76.4312 H             1 RES     
     823 H           79.0907   123.9070    77.4139 H             1 RES     
     824 O           69.2886   124.5291    78.7808 O             1 RES     
     825 C           67.6269   125.9938    79.6424 C             1 RES     
     826 C           64.8050   125.2065    79.7311 C             1 RES     
     827 H           67.6789   126.5111    81.0166 H             1 RES     
     828 H           67.0747   126.2704    78.2059 H             1 RES     
     829 C           92.6358   128.2124    80.3337 C             1 RES     
     830 O           62.5214   126.6782    77.9919 O             1 RES     
     831 H           96.1092   129.3403    80.6097 H             1 RES     
     832 H           95.4658   129.5156    82.1123 H             1 RES     
     833 H           97.6767   118.1822    85.0880 H             1 RES     
     834 C           90.0005   123.8248    78.3107 C             1 RES     
     835 C           92.6420   122.2558    78.8555 C             1 RES     
     836 H           89.0738   124.7779    78.8138 H             1 RES     
     837 O           90.1995   124.3342    76.6738 O             1 RES     
     838 H           90.0984   124.7863    75.5871 H             1 RES     
     839 N           94.0806   123.3338    78.5818 N             1 RES     
     840 H           92.3320   121.8867    79.9457 H             1 RES     
     841 H           93.0006   121.2495    77.3035 H             1 RES     
     842 C           96.0929   122.8173    82.7210 C             1 RES     
     843 H           94.0417   124.6270    78.5148 H             1 RES     
     844 C           96.1647   125.1607    82.2517 C             1 RES     
     845 H           98.5919   117.8874    83.2593 H             1 RES     
     846 C           98.2746   121.1900    83.8046 C             1 RES     
     847 C           98.4778   126.9486    82.7949 C             1 RES     
     848 H          104.1036   130.6132    83.6891 H             1 RES     
     849 C           95.4394   128.8436    81.2802 C             1 RES     
     850 C          100.2916   125.3950    83.7796 C             1 RES     
     851 H           92.1341   129.1211    80.0738 H             1 RES     
     852 H           99.4011   118.2283    84.8100 H             1 RES     
     853 C          100.3914   122.4316    84.3787 C             1 RES     
     854 C          102.8777   126.5615    83.2768 C             1 RES     
     855 C           60.1550   127.2018    77.6941 C             1 RES     
     856 H           92.6840   127.5739    79.4766 H             1 RES     
     857 C           98.4421   118.4454    84.3881 C             1 RES     
     858 N          104.6472   120.8580    81.7100 N             1 RES     
     859 H           92.0978   127.7192    81.1162 H             1 RES     
     860 H           64.2826   125.3499    78.5269 H             1 RES     
     861 H           98.5443   128.0023    82.6210 H             1 RES     
     862 C          104.4723   130.0172    84.4977 C             1 RES     
     863 H          103.5558   125.8744    82.4786 H             1 RES     
     864 H          103.2816   126.7685    83.4958 H             1 RES     
     865 H          104.2754   130.5134    85.4251 H             1 RES     
     866 H          105.5271   129.8768    84.3853 H             1 RES     
     867 H           65.2310   123.8391    78.6206 H             1 RES     
     868 H          104.8550   121.4762    80.6513 H             1 RES     
     869 H           60.3612   127.0813    79.3028 H             1 RES     
     870 H           60.6977   127.6767    76.3813 H             1 RES     
     871 H           94.2251   121.5956    78.6626 H             1 RES     
     872 H          104.6228   119.4863    81.7837 H             1 RES     
     873 C          120.2681   119.7385    81.0572 C             1 RES     
     874 C          122.2754   121.0453    80.5909 C             1 RES     
     875 C          126.9040   120.6807    80.0566 C             1 RES     
     876 C          121.4118   116.1694    81.1945 C             1 RES     
     877 C          120.0659   117.7193    81.2028 C             1 RES     
     878 C          124.0218   119.4993    80.5328 C             1 RES     
     879 H          122.4619   122.0908    80.4613 H             1 RES     
     880 H          119.4399   120.9640    80.9494 H             1 RES     
     881 C          123.6765   117.3384    80.7957 C             1 RES     
     882 H          121.2197   115.1249    81.3247 H             1 RES     
     883 O          137.5783   114.1244    81.1726 O             1 RES     
     884 H          124.5397   116.7074    80.7534 H             1 RES     
     885 C          129.3444   119.1586    79.9725 C             1 RES     
     886 H          126.8780   121.2010    79.1221 H             1 RES     
     887 H          127.0846   121.2708    80.9307 H             1 RES     
     888 C          131.5290   120.4090    79.5133 C             1 RES     
     889 C          133.2576   115.8872    80.6789 C             1 RES     
     890 C          128.8177   116.1950    80.2775 C             1 RES     
     891 C          133.4873   118.9081    79.3820 C             1 RES     
     892 C          130.7322   114.9019    80.0528 C             1 RES     
     893 H          130.7603   113.6438    80.0324 H             1 RES     
     894 H          131.6894   121.4592    79.3864 H             1 RES     
     895 H          134.2289   118.4427    78.9305 H             1 RES     
     896 H          127.8095   115.8729    80.4348 H             1 RES     
     897 O          118.1657   117.2202    82.3106 O             1 RES     
     898 C          116.6550   118.8359    83.1800 C             1 RES     
     899 C          113.7989   118.2449    83.4706 C             1 RES     
     900 H          116.8215   119.4201    84.5179 H             1 RES     
     901 H          116.0371   119.0731    81.7634 H             1 RES     
     902 C          141.7512   119.4099    82.3456 C             1 RES     
     903 O          111.5143   119.7728    81.7818 O             1 RES     
     904 H          145.2997   120.3158    82.3630 H             1 RES     
     905 H          144.7593   120.6124    83.8869 H             1 RES     
     906 H          146.4164   109.3283    87.3672 H             1 RES     
     907 C          138.7259   115.1082    80.7232 C             1 RES     
     908 C          141.2897   113.3968    81.2069 C             1 RES     
     909 H          137.8935   116.1463    81.2229 H             1 RES     
     910 O          138.8593   115.5165    79.0516 O             1 RES     
     911 H          138.7227   115.9167    77.9486 H             1 RES     
     912 N          142.7753   114.3603    80.7929 N             1 RES     
     913 H          141.0222   113.1070    82.3317 H             1 RES     
     914 H          141.4905   112.2887    79.6963 H             1 RES     
     915 C          144.9932   113.9284    84.8356 C             1 RES     
     916 H          142.8150   115.6479    80.6555 H             1 RES     
     917 C          145.1863   116.2338    84.2318 C             1 RES     
     918 H          147.2005   108.8773    85.5098 H             1 RES     
     919 C          147.1274   112.2179    85.8852 C             1 RES     
     920 C          147.6369   117.8890    84.5434 C             1 RES     
     921 H          153.5280   121.2109    84.9139 H             1 RES     
     922 C          144.6407   119.9008    83.0967 C             1 RES     
     923 C          149.4032   116.2714    85.5109 C             1 RES     
     924 H          141.2939   120.3352    82.0634 H             1 RES     
     925 H          148.1206   109.2443    86.9911 H             1 RES     
     926 C          149.3495   113.3435    86.2692 C             1 RES     
     927 C          152.0239   117.2342    84.7994 C             1 RES     
     928 C          109.1727   120.4372    81.5879 C             1 RES     
     929 H          141.7075   118.7255    81.5243 H             1 RES     
     930 C          147.1540   109.5026    86.6120 C             1 RES     
     931 N          153.3299   111.3508    83.4595 N             1 RES     
     932 H          141.2304   118.9955    83.1834 H             1 RES     
     933 H          113.2161   118.3595    82.2913 H             1 RES     
     934 H          147.7598   118.9253    84.3070 H             1 RES     
     935 C          153.9054   120.6349    85.7328 C             1 RES     
     936 H          152.6082   116.4624    84.0045 H             1 RES     
     937 H          152.4525   117.4250    84.9835 H             1 RES     
     938 H          153.7961   121.1911    86.6404 H             1 RES     
     939 H          154.9406   120.4186    85.5696 H             1 RES     
     940 H          114.0701   116.7957    82.4167 H             1 RES     
     941 H          153.5133   111.8973    82.3577 H             1 RES     
     942 H          109.4661   120.3877    83.1867 H             1 RES     
     943 H          109.6655   120.8051    80.2221 H             1 RES     
     944 H          142.8133   112.6230    80.9631 H             1 RES     
     945 H          153.2225   109.9896    83.6115 H             1 RES     
     946 C          168.7811   109.1562    81.9980 C             1 RES     
     947 C          170.8364   110.2995    81.3474 C             1 RES     
     948 C          175.3922   109.5985    80.5764 C             1 RES     
     949 C          169.7011   105.5307    82.2718 C             1 RES     
     950 C          168.4596   107.1655    82.2681 C             1 RES     
     951 C          172.4741   108.6392    81.2788 C             1 RES     
     952 H          171.0811   111.3219    81.1489 H             1 RES     
     953 H          168.0278   110.4270    81.8679 H             1 RES     
     954 C          172.0080   106.5230    81.6817 C             1 RES     
     955 H          169.4509   104.5096    82.4711 H             1 RES     
     956 O          185.6744   102.4104    81.4608 O             1 RES     
     957 H          172.8251   105.8343    81.6268 H             1 RES     
     958 C          177.7214   107.9143    80.4417 C             1 RES     
     959 H          175.3439   110.0696    79.6170 H             1 RES     
     960 H          175.6618   110.2203    81.4044 H             1 RES     
     961 C          179.9500   108.9899    79.7914 C             1 RES     
     962 C          181.4531   104.4300    81.1111 C             1 RES     
     963 C          177.0259   105.0126    80.9420 C             1 RES     
     964 C          181.7974   107.3565    79.6355 C             1 RES     
     965 C          178.8373   103.5844    80.6837 C             1 RES     
     966 H          178.7839   102.3278    80.7325 H             1 RES     
     967 H          180.1692   110.0189    79.5969 H             1 RES     
     968 H          182.4796   106.8196    79.1701 H             1 RES     
     969 H          176.0103   104.7674    81.1733 H             1 RES     
     970 O          166.6008   106.8534    83.5068 O             1 RES     
     971 C          165.2506   108.6099    84.3670 C             1 RES     
     972 C          162.3849   108.2274    84.8497 C             1 RES     
     973 H          165.5333   109.2511    85.6585 H             1 RES     
     974 H          164.5658   108.8133    82.9760 H             1 RES     
     975 C          190.2381   107.4592    82.0992 C             1 RES     
     976 O          160.1060   109.8139    83.2080 O             1 RES     
     977 H          193.8318   108.1254    81.8671 H             1 RES     
     978 H          193.4031   108.5371    83.3998 H             1 RES     
     979 H          194.5416    97.3656    87.4114 H             1 RES     
     980 C          186.8535   103.2904    80.8932 C             1 RES     
     981 C          189.3273   101.4391    81.3283 C             1 RES     
     982 H          186.1202   104.4066    81.3795 H             1 RES     
     983 O          186.9130   103.6005    79.1965 O             1 RES     
     984 H          186.7369   103.9506    78.0821 H             1 RES     
     985 N          190.8440   102.2779    80.7783 N             1 RES     
     986 H          189.1092   101.2272    82.4808 H             1 RES     
     987 H          189.3668   100.2422    79.8736 H             1 RES     
     988 C          193.2665   101.9114    84.7085 C             1 RES     
     989 H          190.9575   103.5510    80.5667 H             1 RES     
     990 C          193.5698   104.1639    83.9661 C             1 RES     
     991 H          195.1834    96.7664    85.5413 H             1 RES     
     992 C          195.3459   100.1194    85.7317 C             1 RES     
     993 C          196.1351   105.6655    84.0465 C             1 RES     
     994 H          202.2377   108.6008    83.8994 H             1 RES     
     995 C          193.1925   107.7946    82.6588 C             1 RES     
     996 C          197.8492   103.9864    85.0032 C             1 RES     
     997 H          189.8247   108.3970    81.7915 H             1 RES     
     998 H          196.2116    97.1482    86.9458 H             1 RES     
     999 C          197.6541   101.1125    85.9269 C             1 RES     
    1000 C          200.4790   104.7331    84.0932 C             1 RES     
    1001 C          157.8041   110.6224    83.1083 C             1 RES     
    1002 H          190.1021   106.7371    81.3215 H             1 RES     
    1003 C          195.2425    97.4503    86.6075 C             1 RES     
    1004 N          201.3252    98.7133    83.0154 N             1 RES     
    1005 H          189.7427   107.1251    82.9869 H             1 RES     
    1006 H          161.7414   108.3187    83.7003 H             1 RES     
    1007 H          196.3096   106.6775    83.7457 H             1 RES     
    1008 C          202.6256   108.0446    84.7271 C             1 RES     
    1009 H          200.9645   103.8833    83.3115 H             1 RES     
    1010 H          200.9291   104.9041    84.2420 H             1 RES     
    1011 H          202.6061   108.6537    85.6066 H             1 RES     
    1012 H          203.6333   107.7512    84.5187 H             1 RES     
    1013 H          162.5000   106.7100    83.8655 H             1 RES     
    1014 H          201.4772    99.1877    81.8762 H             1 RES     
    1015 H          158.1883   110.6373    84.6884 H             1 RES     
    1016 H          158.2372   110.8843    81.6986 H             1 RES     
    1017 H          190.7812   100.5533    81.0436 H             1 RES     
    1018 H          201.1405    97.3721    83.2496 H             1 RES     
    1019 C          216.4908    95.4163    80.8179 C             1 RES     
    1020 C          218.5723    96.3838    79.9900 C             1 RES     
    1021 C          223.0203    95.3402    79.0061 C             1 RES     
    1022 C          217.1924    91.7568    81.2433 C             1 RES     
    1023 C          216.0596    93.4685    81.2171 C             1 RES     
    1024 C          220.0939    94.6164    79.9235 C             1 RES     
    1025 H          218.8695    97.3758    79.7209 H             1 RES     
    1026 H          215.8135    96.7260    80.6588 H             1 RES     
    1027 C          219.5186    92.5602    80.4703 C             1 RES     
    1028 H          216.8899    90.7666    81.5135 H             1 RES     
    1029 O          232.8576    87.5367    79.7170 O             1 RES     
    1030 H          220.2855    91.8165    80.4086 H             1 RES     
    1031 C          225.2252    93.4992    78.8363 C             1 RES     
    1032 H          222.9451    95.7624    78.0259 H             1 RES     
    1033 H          223.3778    95.9851    79.7815 H             1 RES     
    1034 C          227.4752    94.3876    78.0029 C             1 RES     
    1035 C          228.7604    89.8130    79.4910 C             1 RES     
    1036 C          224.3771    90.6808    79.5372 C             1 RES     
    1037 C          229.2022    92.6285    77.8360 C             1 RES     
    1038 C          226.0752    89.1230    79.2588 C             1 RES     
    1039 H          225.9448    87.8771    79.3811 H             1 RES     
    1040 H          227.7476    95.3881    77.7388 H             1 RES     
    1041 H          229.8198    92.0234    77.3642 H             1 RES     
    1042 H          223.3636    90.5165    79.8384 H             1 RES     
    1043 O          214.2617    93.3469    82.5734 O             1 RES     
    1044 C          213.0797    95.2325    83.4076 C             1 RES     
    1045 C          210.2294    95.0684    84.0706 C             1 RES     
    1046 H          213.4791    95.9202    84.6432 H             1 RES     
    1047 H          212.3278    95.4079    82.0479 H             1 RES     
    1048 C          237.7638    92.2955    79.8141 C             1 RES     
    1049 O          207.9626    96.7155    82.4723 O             1 RES     
    1050 H          241.3725    92.7067    79.3443 H             1 RES     
    1051 H          241.0628    93.2259    80.8729 H             1 RES     
    1052 H          241.7235    82.2294    85.4368 H             1 RES     
    1053 C          234.0546    88.3048    79.0358 C             1 RES     
    1054 C          236.4268    86.3175    79.4353 C             1 RES     
    1055 H          233.4242    89.4916    79.4988 H             1 RES     
    1056 O          234.0327    88.5208    77.3237 O             1 RES     
    1057 H          233.8133    88.8229    76.2029 H             1 RES     
    1058 N          237.9585    87.0231    78.7550 N             1 RES     
    1059 H          236.2647    86.1815    80.6083 H             1 RES     
    1060 H          236.3033    85.0460    78.0503 H             1 RES     
    1061 C          240.5822    86.7021    82.5579 C             1 RES     
    1062 H          238.1402    88.2728    78.4661 H             1 RES     
    1063 C          240.9839    88.8872    81.6742 C             1 RES     
    1064 H          242.2135    81.4912    83.5704 H             1 RES     
    1065 C          242.6004    84.8312    83.5624 C             1 RES     
    1066 C          243.6399    90.2160    81.5263 C             1 RES     
    1067 H          249.8975    92.7246    80.8732 H             1 RES     
    1068 C          240.7617    92.4613    80.1878 C             1 RES     
    1069 C          245.2973    88.4784    82.4786 C             1 RES     
    1070 H          237.3935    93.2413    79.4777 H             1 RES     
    1071 H          243.3456    81.8766    84.8915 H             1 RES     
    1072 C          244.9747    85.6765    83.5721 C             1 RES     
    1073 C          247.9105    88.9988    81.3824 C             1 RES     
    1074 C          205.7150    97.6697    82.4561 C             1 RES     
    1075 H          237.5360    91.5442    79.0871 H             1 RES     
    1076 C          242.3794    82.2247    84.5914 C             1 RES     
    1077 N          248.3057    82.8876    80.5994 N             1 RES     
    1078 H          237.3018    92.0423    80.7455 H             1 RES     
    1079 H          209.5257    95.1421    82.9557 H             1 RES     
    1080 H          243.8604    91.1968    81.1598 H             1 RES     
    1081 C          250.2978    92.1879    81.7079 C             1 RES     
    1082 H          248.2936    88.0785    80.6238 H             1 RES     
    1083 H          248.3787    89.1469    81.4959 H             1 RES     
    1084 H          250.3695    92.8423    82.5515 H             1 RES     
    1085 H          251.2706    91.8173    81.4603 H             1 RES     
    1086 H          210.1887    93.4971    83.1684 H             1 RES     
    1087 H          248.4196    83.2903    79.4286 H             1 RES     
    1088 H          206.1928    97.7419    84.0090 H             1 RES     
    1089 H          206.0793    97.8278    81.0119 H             1 RES     
    1090 H          237.8018    85.3228    79.1200 H             1 RES     
    1091 H          248.0501    81.5759    80.9186 H             1 RES     
    1092 H           10.0000   130.9981    71.1579 H             1 RES     
    1093 H          249.3339    82.5597    80.4203 H             1 RES     
    1094 C          234.7255    92.5954    37.6921 C             1 RES     
    1095 C          234.8755    91.6196    35.4606 C             1 RES     
    1096 C          236.5283    87.9235    33.1264 C             1 RES     
    1097 C          236.2311    90.0487    39.9970 C             1 RES     
    1098 C          235.2646    91.7837    39.4781 C             1 RES     
    1099 C          235.9731    89.5810    35.7482 C             1 RES     
    1100 H          234.5852    91.9555    34.4871 H             1 RES     
    1101 H          233.9656    93.7447    37.1434 H             1 RES     
    1102 C          236.5862    88.8562    37.7373 C             1 RES     
    1103 H          236.5192    89.7175    40.9729 H             1 RES     
    1104 O          243.9005    79.1023    33.4758 O             1 RES     
    1105 H          237.0839    87.9095    37.7689 H             1 RES     
    1106 C          237.9010    85.3977    33.0017 C             1 RES     
    1107 H          235.5799    87.7383    32.6670 H             1 RES     
    1108 H          237.2162    88.5345    32.5800 H             1 RES     
    1109 C          238.1486    84.2725    30.7171 C             1 RES     
    1110 C          241.0356    81.3464    33.5273 C             1 RES     
    1111 C          238.6707    84.4130    35.7570 C             1 RES     
    1112 C          239.2644    82.0717    30.8444 C             1 RES     
    1113 C          239.6349    82.3018    35.7332 C             1 RES     
    1114 H          239.9421    81.6324    36.7537 H             1 RES     
    1115 H          237.8482    84.6304    29.7545 H             1 RES     
    1116 H          239.3141    81.0895    30.7883 H             1 RES     
    1117 H          238.4458    85.0346    36.5985 H             1 RES     
    1118 O          234.6498    93.5126    41.9110 O             1 RES     
    1119 C          233.7024    95.2785    41.6896 C             1 RES     
    1120 H          233.9252    96.2373    44.4692 H             1 RES     
    1121 H          231.5941    95.6571    39.4555 H             1 RES     
    1122 C          244.4928    78.6443    31.3567 C             1 RES     
    1123 H          242.8836    79.9381    29.7005 H             1 RES     
    1124 H          246.4829    75.9740    30.9462 H             1 RES     
    1125 O          243.6016    79.3483    29.5027 O             1 RES     
    1126 H          234.4190    95.9176    41.2176 H             1 RES     
    1127 C          233.0535    96.1066    43.8625 C             1 RES     
    1128 H          232.3956    95.4041    44.3300 H             1 RES     
    1129 O          232.4573    96.0527    39.4870 O             1 RES     
    1130 C          246.6687    76.8257    31.5665 C             1 RES     
    1131 H          244.0435    79.1918    30.5547 H             1 RES     
    1132 H          246.7731    76.5102    32.5836 H             1 RES     
    1133 C          244.4320    87.9731    35.6943 C             1 RES     
    1134 C          245.8376    87.8493    33.7035 C             1 RES     
    1135 C          248.5952    84.9592    31.2777 C             1 RES     
    1136 C          244.4211    84.5060    37.1242 C             1 RES     
    1137 C          243.8827    86.4803    36.9628 C             1 RES     
    1138 C          246.6210    85.6527    33.6337 C             1 RES     
    1139 H          246.1421    88.5654    32.9693 H             1 RES     
    1140 H          244.0927    89.3806    35.3727 H             1 RES     
    1141 C          246.0161    84.1500    35.1283 C             1 RES     
    1142 H          244.1133    83.7938    37.8610 H             1 RES     
    1143 O          254.6536    75.1908    31.6753 O             1 RES     
    1144 H          246.4276    83.1689    35.0138 H             1 RES     
    1145 C          249.8484    82.4063    30.8400 C             1 RES     
    1146 H          248.0769    85.1655    30.3647 H             1 RES     
    1147 H          249.4589    85.5555    31.4856 H             1 RES     
    1148 C          251.3675    82.1440    28.7979 C             1 RES     
    1149 C          252.2172    77.8457    31.1635 C             1 RES     
    1150 C          248.9444    80.3599    32.8770 C             1 RES     
    1151 C          252.2599    79.8533    28.5504 C             1 RES     
    1152 C          249.7955    78.2381    32.4757 C             1 RES     
    1153 H          249.4850    77.1986    33.1139 H             1 RES     
    1154 H          251.6570    82.8785    28.0758 H             1 RES     
    1155 H          252.3524    78.9708    28.1227 H             1 RES     
    1156 H          248.2705    80.6742    33.6464 H             1 RES     
    1157 O          241.9648    87.3192    39.1773 O             1 RES     
    1158 C          241.2733    89.2113    39.2601 C             1 RES     
    1159 H          239.8654    89.0417    41.8454 H             1 RES     
    1160 H          240.7912    90.8193    36.6599 H             1 RES     
    1161 C          256.3497    75.3984    30.2156 C             1 RES     
    1162 H          255.9337    77.5203    28.6887 H             1 RES     
    1163 H          258.2766    72.6791    29.8262 H             1 RES     
    1164 O          256.6495    76.8960    28.6681 O             1 RES     
    1165 H          242.1182    89.8003    39.5501 H             1 RES     
    1166 C          239.4926    89.3328    40.8857 C             1 RES     
    1167 H          238.7000    88.6749    40.5963 H             1 RES     
    1168 O          241.4770    90.9754    37.2985 O             1 RES     
    1169 C          258.0617    73.1897    30.7415 C             1 RES     
    1170 H          256.4219    76.2809    29.6148 H             1 RES     
    1171 H          257.5788    72.5178    31.4199 H             1 RES     
    1172 C           46.2372   126.3935    54.9908 C             1 RES     
    1173 C           44.3089   127.7105    55.6989 C             1 RES     
    1174 C           42.6413   130.2358    59.2603 C             1 RES     
    1175 C           48.7540   126.7487    57.7485 C             1 RES     
    1176 C           48.0316   126.1576    55.9203 C             1 RES     
    1177 C           44.8574   128.5236    57.8158 C             1 RES     
    1178 H           43.3552   127.9175    55.2604 H             1 RES     
    1179 H           45.5853   126.1331    53.6844 H             1 RES     
    1180 C           46.8114   128.1181    58.7514 C             1 RES     
    1181 H           49.7093   126.5388    58.1825 H             1 RES     
    1182 O           43.6734   132.4921    70.4910 O             1 RES     
    1183 H           46.9712   128.5333    59.7246 H             1 RES     
    1184 C           42.8595   131.3798    61.8915 C             1 RES     
    1185 H           42.4226   131.0663    58.6222 H             1 RES     
    1186 H           41.8489   129.5367    59.4282 H             1 RES     
    1187 C           40.8975   132.7685    62.7681 C             1 RES     
    1188 C           43.7287   132.4532    66.8520 C             1 RES     
    1189 C           45.5765   130.8499    63.1126 C             1 RES     
    1190 C           41.3277   133.7415    64.9982 C             1 RES     
    1191 C           45.8697   131.8889    65.1674 C             1 RES     
    1192 H           46.9434   131.9098    65.8238 H             1 RES     
    1193 H           39.9509   132.9615    62.3080 H             1 RES     
    1194 H           41.4954   134.4709    65.6385 H             1 RES     
    1195 H           46.2755   130.2600    62.5572 H             1 RES     
    1196 O           50.0618   124.4828    54.3843 O             1 RES     
    1197 C           49.6125   123.7681    52.5533 C             1 RES     
    1198 H           51.9984   122.0826    52.1523 H             1 RES     
    1199 H           47.7837   125.3805    50.6467 H             1 RES     
    1200 C           41.6488   133.1264    71.2323 C             1 RES     
    1201 H           40.0640   133.5837    69.1620 H             1 RES     
    1202 H           41.5134   134.1049    74.4391 H             1 RES     
    1203 O           39.8802   133.6694    70.0901 O             1 RES     
    1204 H           48.8790   123.0088    52.7271 H             1 RES     
    1205 C           51.6121   122.8713    51.5410 C             1 RES     
    1206 H           52.3452   123.6456    51.4525 H             1 RES     
    1207 O           47.5606   124.5689    51.0871 O             1 RES     
    1208 C           41.8711   133.1677    74.0668 C             1 RES     
    1209 H           40.8386   133.2151    70.5390 H             1 RES     
    1210 H           42.8962   133.0408    74.3461 H             1 RES     
    1211 C           56.0124   124.0355    54.7147 C             1 RES     
    1212 C           54.2846   125.5800    55.4784 C             1 RES     
    1213 C           53.1479   128.4355    58.9991 C             1 RES     
    1214 C           58.7487   124.2581    57.2698 C             1 RES     
    1215 C           57.8374   123.6581    55.5311 C             1 RES     
    1216 C           55.0671   126.4327    57.5043 C             1 RES     
    1217 H           53.3269   125.8642    55.0953 H             1 RES     
    1218 H           55.2430   123.7818    53.4725 H             1 RES     
    1219 C           57.0338   125.8704    58.3252 C             1 RES     
    1220 H           59.7073   123.9705    57.6485 H             1 RES     
    1221 O           55.2281   131.1122    69.9897 O             1 RES     
    1222 H           57.3059   126.3132    59.2606 H             1 RES     
    1223 C           53.6741   129.6763    61.5414 C             1 RES     
    1224 H           52.9678   129.2525    58.3322 H             1 RES     
    1225 H           52.3034   127.8322    59.2596 H             1 RES     
    1226 C           51.9324   131.3038    62.4713 C             1 RES     
    1227 C           55.0107   130.8917    66.3633 C             1 RES     
    1228 C           56.4062   128.9245    62.6016 C             1 RES     
    1229 C           52.6221   132.3331    64.6090 C             1 RES     
    1230 C           56.9536   130.0252    64.5704 C             1 RES     
    1231 H           58.0694   129.9653    65.1496 H             1 RES     
    1232 H           50.9789   131.5724    62.0670 H             1 RES     
    1233 H           52.9093   133.0711    65.1948 H             1 RES     
    1234 H           56.9991   128.2384    62.0335 H             1 RES     
    1235 O           59.5692   121.7074    53.9557 O             1 RES     
    1236 C           58.9161   120.9560    52.2024 C             1 RES     
    1237 H           61.0834   119.0123    51.7338 H             1 RES     
    1238 H           57.1240   122.6569    50.3383 H             1 RES     
    1239 C           53.3382   131.9903    70.8311 C             1 RES     
    1240 H           51.6594   132.5104    68.8517 H             1 RES     
    1241 H           53.5393   133.1317    73.9801 H             1 RES     
    1242 O           51.5542   132.6597    69.7840 O             1 RES     
    1243 H           58.1244   120.2870    52.4679 H             1 RES     
    1244 C           60.7348   119.8066    51.1074 C             1 RES     
    1245 H           61.5338   120.4947    50.9259 H             1 RES     
    1246 O           56.8531   121.8954    50.8375 O             1 RES     
    1247 C           53.7719   132.1453    73.6372 C             1 RES     
    1248 H           52.4922   132.1297    70.1910 H             1 RES     
    1249 H           54.7968   131.9253    73.8523 H             1 RES     
@<TRIPOS>BOND
       1        1        2 1
       2        1        5 1
       3        1        8 1
       4        2        6 1
       5        2        7 1
       6        3        6 1
       7        3       13 1
       8        3       14 1
       9        3       15 1
      10        4        5 1
      11        4       10 1
      12        4        9 1
      13        5       25 1
      14        6        9 1
      15        9       12 1
      16       11       17 1
      17       11       35 1
      18       13       16 1
      19       13       18 1
      20       16       19 1
      21       16       22 1
      22       17       19 1
      23       17       20 1
      24       18       24 1
      25       18       20 1
      26       19       23 1
      27       20       21 1
      28       25       26 1
      29       26       27 1
      30       26       28 1
      31       26       29 1
      32       27       31 1
      33       27       61 1
      34       27       68 1
      35       30       50 1
      36       30       52 1
      37       30       57 1
      38       30       60 1
      39       31       56 1
      40       32       50 1
      41       33       50 1
      42       34       58 1
      43       35       36 1
      44       35       37 1
      45       35       38 1
      46       36       40 1
      47       36       41 1
      48       36       42 1
      49       38       39 1
      50       40       43 1
      51       40       44 1
      52       40       72 1
      53       43       45 1
      54       43       47 1
      55       45       48 1
      56       45       50 1
      57       46       58 1
      58       47       54 1
      59       47       58 1
      60       48       51 1
      61       48       62 1
      62       49       63 1
      63       51       54 1
      64       51       55 1
      65       53       58 1
      66       54       59 1
      67       55       63 1
      68       55       64 1
      69       55       65 1
      70       56       70 1
      71       56       71 1
      72       56      364 1
      73       59       69 1
      74       59       73 1
      75       59      129 1
      76       63       67 1
      77       63       66 1
      78       74       75 1
      79       74       78 1
      80       74       81 1
      81       75       79 1
      82       75       80 1
      83       76       79 1
      84       76       86 1
      85       76       87 1
      86       76       88 1
      87       77       78 1
      88       77       83 1
      89       77       82 1
      90       78       98 1
      91       79       82 1
      92       82       85 1
      93       84       90 1
      94       84      108 1
      95       86       89 1
      96       86       91 1
      97       89       92 1
      98       89       95 1
      99       90       92 1
     100       90       93 1
     101       91       97 1
     102       91       93 1
     103       92       96 1
     104       93       94 1
     105       98       99 1
     106       99      100 1
     107       99      101 1
     108       99      102 1
     109      100      104 1
     110      100      134 1
     111      100      141 1
     112      103      123 1
     113      103      125 1
     114      103      130 1
     115      103      133 1
     116      104      129 1
     117      105      123 1
     118      106      123 1
     119      107      131 1
     120      108      109 1
     121      108      110 1
     122      108      111 1
     123      109      113 1
     124      109      114 1
     125      109      115 1
     126      111      112 1
     127      113      116 1
     128      113      117 1
     129      113      145 1
     130      116      118 1
     131      116      120 1
     132      118      121 1
     133      118      123 1
     134      119      131 1
     135      120      127 1
     136      120      131 1
     137      121      124 1
     138      121      135 1
     139      122      136 1
     140      124      127 1
     141      124      128 1
     142      126      131 1
     143      127      132 1
     144      128      136 1
     145      128      137 1
     146      128      138 1
     147      129      143 1
     148      129      144 1
     149      132      142 1
     150      132      146 1
     151      132      202 1
     152      136      140 1
     153      136      139 1
     154      147      148 1
     155      147      151 1
     156      147      154 1
     157      148      152 1
     158      148      153 1
     159      149      152 1
     160      149      159 1
     161      149      160 1
     162      149      161 1
     163      150      151 1
     164      150      156 1
     165      150      155 1
     166      151      171 1
     167      152      155 1
     168      155      158 1
     169      157      163 1
     170      157      181 1
     171      159      162 1
     172      159      164 1
     173      162      165 1
     174      162      168 1
     175      163      165 1
     176      163      166 1
     177      164      170 1
     178      164      166 1
     179      165      169 1
     180      166      167 1
     181      171      172 1
     182      172      173 1
     183      172      174 1
     184      172      175 1
     185      173      177 1
     186      173      207 1
     187      173      214 1
     188      176      196 1
     189      176      198 1
     190      176      203 1
     191      176      206 1
     192      177      202 1
     193      178      196 1
     194      179      196 1
     195      180      204 1
     196      181      182 1
     197      181      183 1
     198      181      184 1
     199      182      186 1
     200      182      187 1
     201      182      188 1
     202      184      185 1
     203      186      189 1
     204      186      190 1
     205      186      218 1
     206      189      191 1
     207      189      193 1
     208      191      194 1
     209      191      196 1
     210      192      204 1
     211      193      200 1
     212      193      204 1
     213      194      197 1
     214      194      208 1
     215      195      209 1
     216      197      200 1
     217      197      201 1
     218      199      204 1
     219      200      205 1
     220      201      209 1
     221      201      210 1
     222      201      211 1
     223      202      216 1
     224      202      217 1
     225      205      215 1
     226      205      219 1
     227      205      275 1
     228      209      213 1
     229      209      212 1
     230      220      221 1
     231      220      224 1
     232      220      227 1
     233      221      225 1
     234      221      226 1
     235      222      225 1
     236      222      232 1
     237      222      233 1
     238      222      234 1
     239      223      224 1
     240      223      229 1
     241      223      228 1
     242      224      244 1
     243      225      228 1
     244      228      231 1
     245      230      236 1
     246      230      254 1
     247      232      235 1
     248      232      237 1
     249      235      238 1
     250      235      241 1
     251      236      238 1
     252      236      239 1
     253      237      243 1
     254      237      239 1
     255      238      242 1
     256      239      240 1
     257      244      245 1
     258      245      246 1
     259      245      247 1
     260      245      248 1
     261      246      250 1
     262      246      280 1
     263      246      287 1
     264      249      269 1
     265      249      271 1
     266      249      276 1
     267      249      279 1
     268      250      275 1
     269      251      269 1
     270      252      269 1
     271      253      277 1
     272      254      255 1
     273      254      256 1
     274      254      257 1
     275      255      259 1
     276      255      260 1
     277      255      261 1
     278      257      258 1
     279      259      262 1
     280      259      263 1
     281      259      291 1
     282      262      264 1
     283      262      266 1
     284      264      267 1
     285      264      269 1
     286      265      277 1
     287      266      273 1
     288      266      277 1
     289      267      270 1
     290      267      281 1
     291      268      282 1
     292      270      273 1
     293      270      274 1
     294      272      277 1
     295      273      278 1
     296      274      282 1
     297      274      283 1
     298      274      284 1
     299      275      289 1
     300      275      290 1
     301      278      288 1
     302      278      292 1
     303      278      348 1
     304      282      286 1
     305      282      285 1
     306      293      294 1
     307      293      297 1
     308      293      300 1
     309      294      298 1
     310      294      299 1
     311      295      298 1
     312      295      305 1
     313      295      306 1
     314      295      307 1
     315      296      297 1
     316      296      302 1
     317      296      301 1
     318      297      317 1
     319      298      301 1
     320      301      304 1
     321      303      309 1
     322      303      327 1
     323      305      308 1
     324      305      310 1
     325      308      311 1
     326      308      314 1
     327      309      311 1
     328      309      312 1
     329      310      316 1
     330      310      312 1
     331      311      315 1
     332      312      313 1
     333      317      318 1
     334      318      319 1
     335      318      320 1
     336      318      321 1
     337      319      323 1
     338      319      353 1
     339      319      360 1
     340      322      342 1
     341      322      344 1
     342      322      349 1
     343      322      352 1
     344      323      348 1
     345      324      342 1
     346      325      342 1
     347      326      350 1
     348      327      328 1
     349      327      329 1
     350      327      330 1
     351      328      332 1
     352      328      333 1
     353      328      334 1
     354      330      331 1
     355      332      335 1
     356      332      336 1
     357      332     1127 1
     358      335      337 1
     359      335      339 1
     360      337      340 1
     361      337      342 1
     362      338      350 1
     363      339      346 1
     364      339      350 1
     365      340      343 1
     366      340      354 1
     367      341      355 1
     368      343      346 1
     369      343      347 1
     370      345      350 1
     371      346      351 1
     372      347      355 1
     373      347      356 1
     374      347      357 1
     375      348      362 1
     376      348      363 1
     377      351      361 1
     378      351      365 1
     379      351     1166 1
     380      355      359 1
     381      355      358 1
     382      366      367 1
     383      366      370 1
     384      366      373 1
     385      367      371 1
     386      367      372 1
     387      368      371 1
     388      368      378 1
     389      368      379 1
     390      368      380 1
     391      369      370 1
     392      369      375 1
     393      369      374 1
     394      370      390 1
     395      371      374 1
     396      374      377 1
     397      376      382 1
     398      376      400 1
     399      378      381 1
     400      378      383 1
     401      381      384 1
     402      381      387 1
     403      382      384 1
     404      382      385 1
     405      383      389 1
     406      383      385 1
     407      384      388 1
     408      385      386 1
     409      390      391 1
     410      391      392 1
     411      391      393 1
     412      391      394 1
     413      392      396 1
     414      392      426 1
     415      392      433 1
     416      395      415 1
     417      395      417 1
     418      395      422 1
     419      395      425 1
     420      396      421 1
     421      397      415 1
     422      398      415 1
     423      399      423 1
     424      400      401 1
     425      400      402 1
     426      400      403 1
     427      401      405 1
     428      401      406 1
     429      401      407 1
     430      403      404 1
     431      405      408 1
     432      405      409 1
     433      405     1205 1
     434      408      410 1
     435      408      412 1
     436      410      413 1
     437      410      415 1
     438      411      423 1
     439      412      419 1
     440      412      423 1
     441      413      416 1
     442      413      427 1
     443      414      428 1
     444      416      419 1
     445      416      420 1
     446      418      423 1
     447      419      424 1
     448      420      428 1
     449      420      429 1
     450      420      430 1
     451      421      435 1
     452      421      436 1
     453      421      727 1
     454      424      434 1
     455      424      492 1
     456      424     1244 1
     457      428      432 1
     458      428      431 1
     459      437      438 1
     460      437      441 1
     461      437      444 1
     462      438      442 1
     463      438      443 1
     464      439      442 1
     465      439      449 1
     466      439      450 1
     467      439      451 1
     468      440      441 1
     469      440      446 1
     470      440      445 1
     471      441      461 1
     472      442      445 1
     473      445      448 1
     474      447      453 1
     475      447      471 1
     476      449      452 1
     477      449      454 1
     478      452      455 1
     479      452      458 1
     480      453      455 1
     481      453      456 1
     482      454      460 1
     483      454      456 1
     484      455      459 1
     485      456      457 1
     486      461      462 1
     487      462      463 1
     488      462      464 1
     489      462      465 1
     490      463      467 1
     491      463      497 1
     492      463      504 1
     493      466      486 1
     494      466      488 1
     495      466      493 1
     496      466      496 1
     497      467      492 1
     498      468      486 1
     499      469      486 1
     500      470      494 1
     501      471      472 1
     502      471      473 1
     503      471      474 1
     504      472      476 1
     505      472      477 1
     506      472      478 1
     507      474      475 1
     508      476      479 1
     509      476      480 1
     510      476      508 1
     511      479      481 1
     512      479      483 1
     513      481      484 1
     514      481      486 1
     515      482      494 1
     516      483      490 1
     517      483      494 1
     518      484      487 1
     519      484      498 1
     520      485      499 1
     521      487      490 1
     522      487      491 1
     523      489      494 1
     524      490      495 1
     525      491      499 1
     526      491      500 1
     527      491      501 1
     528      492      506 1
     529      492      507 1
     530      495      505 1
     531      495      509 1
     532      495      565 1
     533      499      503 1
     534      499      502 1
     535      510      511 1
     536      510      514 1
     537      510      517 1
     538      511      515 1
     539      511      516 1
     540      512      515 1
     541      512      522 1
     542      512      523 1
     543      512      524 1
     544      513      514 1
     545      513      519 1
     546      513      518 1
     547      514      534 1
     548      515      518 1
     549      518      521 1
     550      520      526 1
     551      520      544 1
     552      522      525 1
     553      522      527 1
     554      525      528 1
     555      525      531 1
     556      526      528 1
     557      526      529 1
     558      527      533 1
     559      527      529 1
     560      528      532 1
     561      529      530 1
     562      534      535 1
     563      535      536 1
     564      535      537 1
     565      535      538 1
     566      536      540 1
     567      536      570 1
     568      536      577 1
     569      539      559 1
     570      539      561 1
     571      539      566 1
     572      539      569 1
     573      540      565 1
     574      541      559 1
     575      542      559 1
     576      543      567 1
     577      544      545 1
     578      544      546 1
     579      544      547 1
     580      545      549 1
     581      545      550 1
     582      545      551 1
     583      547      548 1
     584      549      552 1
     585      549      553 1
     586      549      581 1
     587      552      554 1
     588      552      556 1
     589      554      557 1
     590      554      559 1
     591      555      567 1
     592      556      563 1
     593      556      567 1
     594      557      560 1
     595      557      571 1
     596      558      572 1
     597      560      563 1
     598      560      564 1
     599      562      567 1
     600      563      568 1
     601      564      572 1
     602      564      573 1
     603      564      574 1
     604      565      579 1
     605      565      580 1
     606      568      578 1
     607      568      582 1
     608      568      638 1
     609      572      576 1
     610      572      575 1
     611      583      584 1
     612      583      587 1
     613      583      590 1
     614      584      588 1
     615      584      589 1
     616      585      588 1
     617      585      595 1
     618      585      596 1
     619      585      597 1
     620      586      587 1
     621      586      592 1
     622      586      591 1
     623      587      607 1
     624      588      591 1
     625      591      594 1
     626      593      599 1
     627      593      617 1
     628      595      598 1
     629      595      600 1
     630      598      601 1
     631      598      604 1
     632      599      601 1
     633      599      602 1
     634      600      606 1
     635      600      602 1
     636      601      605 1
     637      602      603 1
     638      607      608 1
     639      608      609 1
     640      608      610 1
     641      608      611 1
     642      609      613 1
     643      609      643 1
     644      609      650 1
     645      612      632 1
     646      612      634 1
     647      612      639 1
     648      612      642 1
     649      613      638 1
     650      614      632 1
     651      615      632 1
     652      616      640 1
     653      617      618 1
     654      617      619 1
     655      617      620 1
     656      618      622 1
     657      618      623 1
     658      618      624 1
     659      620      621 1
     660      622      625 1
     661      622      626 1
     662      622      654 1
     663      625      627 1
     664      625      629 1
     665      627      630 1
     666      627      632 1
     667      628      640 1
     668      629      636 1
     669      629      640 1
     670      630      633 1
     671      630      644 1
     672      631      645 1
     673      633      636 1
     674      633      637 1
     675      635      640 1
     676      636      641 1
     677      637      645 1
     678      637      646 1
     679      637      647 1
     680      638      652 1
     681      638      653 1
     682      641      651 1
     683      641      655 1
     684      641      711 1
     685      645      649 1
     686      645      648 1
     687      656      657 1
     688      656      660 1
     689      656      663 1
     690      657      661 1
     691      657      662 1
     692      658      661 1
     693      658      668 1
     694      658      669 1
     695      658      670 1
     696      659      660 1
     697      659      665 1
     698      659      664 1
     699      660      680 1
     700      661      664 1
     701      664      667 1
     702      666      672 1
     703      666      690 1
     704      668      671 1
     705      668      673 1
     706      671      674 1
     707      671      677 1
     708      672      674 1
     709      672      675 1
     710      673      679 1
     711      673      675 1
     712      674      678 1
     713      675      676 1
     714      680      681 1
     715      681      682 1
     716      681      683 1
     717      681      684 1
     718      682      686 1
     719      682      716 1
     720      682      723 1
     721      685      705 1
     722      685      707 1
     723      685      712 1
     724      685      715 1
     725      686      711 1
     726      687      705 1
     727      688      705 1
     728      689      713 1
     729      690      691 1
     730      690      692 1
     731      690      693 1
     732      691      695 1
     733      691      696 1
     734      691      697 1
     735      693      694 1
     736      695      698 1
     737      695      699 1
     738      695     1130 1
     739      698      700 1
     740      698      702 1
     741      700      703 1
     742      700      705 1
     743      701      713 1
     744      702      709 1
     745      702      713 1
     746      703      706 1
     747      703      717 1
     748      704      718 1
     749      706      709 1
     750      706      710 1
     751      708      713 1
     752      709      714 1
     753      710      718 1
     754      710      719 1
     755      710      720 1
     756      711      725 1
     757      711      726 1
     758      714      724 1
     759      714      728 1
     760      714     1169 1
     761      718      722 1
     762      718      721 1
     763      729      730 1
     764      729      733 1
     765      729      736 1
     766      730      734 1
     767      730      735 1
     768      731      734 1
     769      731      741 1
     770      731      742 1
     771      731      743 1
     772      732      733 1
     773      732      738 1
     774      732      737 1
     775      733      753 1
     776      734      737 1
     777      737      740 1
     778      739      745 1
     779      739      763 1
     780      741      744 1
     781      741      746 1
     782      744      747 1
     783      744      750 1
     784      745      747 1
     785      745      748 1
     786      746      752 1
     787      746      748 1
     788      747      751 1
     789      748      749 1
     790      753      754 1
     791      754      755 1
     792      754      756 1
     793      754      757 1
     794      755      759 1
     795      755      789 1
     796      755      796 1
     797      758      778 1
     798      758      780 1
     799      758      785 1
     800      758      788 1
     801      759      784 1
     802      760      778 1
     803      761      778 1
     804      762      786 1
     805      763      764 1
     806      763      765 1
     807      763      766 1
     808      764      768 1
     809      764      769 1
     810      764      770 1
     811      766      767 1
     812      768      771 1
     813      768      772 1
     814      768     1208 1
     815      771      773 1
     816      771      775 1
     817      773      776 1
     818      773      778 1
     819      774      786 1
     820      775      782 1
     821      775      786 1
     822      776      779 1
     823      776      790 1
     824      777      791 1
     825      779      782 1
     826      779      783 1
     827      781      786 1
     828      782      787 1
     829      783      791 1
     830      783      792 1
     831      783      793 1
     832      784      798 1
     833      784      799 1
     834      784     1092 1
     835      787      797 1
     836      787      855 1
     837      787     1247 1
     838      791      795 1
     839      791      794 1
     840      800      801 1
     841      800      804 1
     842      800      807 1
     843      801      805 1
     844      801      806 1
     845      802      805 1
     846      802      812 1
     847      802      813 1
     848      802      814 1
     849      803      804 1
     850      803      809 1
     851      803      808 1
     852      804      824 1
     853      805      808 1
     854      808      811 1
     855      810      816 1
     856      810      834 1
     857      812      815 1
     858      812      817 1
     859      815      818 1
     860      815      821 1
     861      816      818 1
     862      816      819 1
     863      817      823 1
     864      817      819 1
     865      818      822 1
     866      819      820 1
     867      824      825 1
     868      825      826 1
     869      825      827 1
     870      825      828 1
     871      826      830 1
     872      826      860 1
     873      826      867 1
     874      829      849 1
     875      829      851 1
     876      829      856 1
     877      829      859 1
     878      830      855 1
     879      831      849 1
     880      832      849 1
     881      833      857 1
     882      834      835 1
     883      834      836 1
     884      834      837 1
     885      835      839 1
     886      835      840 1
     887      835      841 1
     888      837      838 1
     889      839      842 1
     890      839      843 1
     891      839      871 1
     892      842      844 1
     893      842      846 1
     894      844      847 1
     895      844      849 1
     896      845      857 1
     897      846      853 1
     898      846      857 1
     899      847      850 1
     900      847      861 1
     901      848      862 1
     902      850      853 1
     903      850      854 1
     904      852      857 1
     905      853      858 1
     906      854      862 1
     907      854      863 1
     908      854      864 1
     909      855      869 1
     910      855      870 1
     911      858      868 1
     912      858      872 1
     913      858      928 1
     914      862      866 1
     915      862      865 1
     916      873      874 1
     917      873      877 1
     918      873      880 1
     919      874      878 1
     920      874      879 1
     921      875      878 1
     922      875      885 1
     923      875      886 1
     924      875      887 1
     925      876      877 1
     926      876      882 1
     927      876      881 1
     928      877      897 1
     929      878      881 1
     930      881      884 1
     931      883      889 1
     932      883      907 1
     933      885      888 1
     934      885      890 1
     935      888      891 1
     936      888      894 1
     937      889      891 1
     938      889      892 1
     939      890      896 1
     940      890      892 1
     941      891      895 1
     942      892      893 1
     943      897      898 1
     944      898      899 1
     945      898      900 1
     946      898      901 1
     947      899      903 1
     948      899      933 1
     949      899      940 1
     950      902      922 1
     951      902      924 1
     952      902      929 1
     953      902      932 1
     954      903      928 1
     955      904      922 1
     956      905      922 1
     957      906      930 1
     958      907      908 1
     959      907      909 1
     960      907      910 1
     961      908      912 1
     962      908      913 1
     963      908      914 1
     964      910      911 1
     965      912      915 1
     966      912      916 1
     967      912      944 1
     968      915      917 1
     969      915      919 1
     970      917      920 1
     971      917      922 1
     972      918      930 1
     973      919      926 1
     974      919      930 1
     975      920      923 1
     976      920      934 1
     977      921      935 1
     978      923      926 1
     979      923      927 1
     980      925      930 1
     981      926      931 1
     982      927      935 1
     983      927      936 1
     984      927      937 1
     985      928      942 1
     986      928      943 1
     987      931      941 1
     988      931      945 1
     989      931     1001 1
     990      935      939 1
     991      935      938 1
     992      946      947 1
     993      946      950 1
     994      946      953 1
     995      947      951 1
     996      947      952 1
     997      948      951 1
     998      948      958 1
     999      948      959 1
    1000      948      960 1
    1001      949      950 1
    1002      949      955 1
    1003      949      954 1
    1004      950      970 1
    1005      951      954 1
    1006      954      957 1
    1007      956      962 1
    1008      956      980 1
    1009      958      961 1
    1010      958      963 1
    1011      961      964 1
    1012      961      967 1
    1013      962      964 1
    1014      962      965 1
    1015      963      969 1
    1016      963      965 1
    1017      964      968 1
    1018      965      966 1
    1019      970      971 1
    1020      971      972 1
    1021      971      973 1
    1022      971      974 1
    1023      972      976 1
    1024      972     1006 1
    1025      972     1013 1
    1026      975      995 1
    1027      975      997 1
    1028      975     1002 1
    1029      975     1005 1
    1030      976     1001 1
    1031      977      995 1
    1032      978      995 1
    1033      979     1003 1
    1034      980      981 1
    1035      980      982 1
    1036      980      983 1
    1037      981      985 1
    1038      981      986 1
    1039      981      987 1
    1040      983      984 1
    1041      985      988 1
    1042      985      989 1
    1043      985     1017 1
    1044      988      990 1
    1045      988      992 1
    1046      990      993 1
    1047      990      995 1
    1048      991     1003 1
    1049      992      999 1
    1050      992     1003 1
    1051      993      996 1
    1052      993     1007 1
    1053      994     1008 1
    1054      996      999 1
    1055      996     1000 1
    1056      998     1003 1
    1057      999     1004 1
    1058     1000     1008 1
    1059     1000     1009 1
    1060     1000     1010 1
    1061     1001     1015 1
    1062     1001     1016 1
    1063     1004     1014 1
    1064     1004     1018 1
    1065     1004     1074 1
    1066     1008     1012 1
    1067     1008     1011 1
    1068     1019     1020 1
    1069     1019     1023 1
    1070     1019     1026 1
    1071     1020     1024 1
    1072     1020     1025 1
    1073     1021     1024 1
    1074     1021     1031 1
    1075     1021     1032 1
    1076     1021     1033 1
    1077     1022     1023 1
    1078     1022     1028 1
    1079     1022     1027 1
    1080     1023     1043 1
    1081     1024     1027 1
    1082     1027     1030 1
    1083     1029     1035 1
    1084     1029     1053 1
    1085     1031     1034 1
    1086     1031     1036 1
    1087     1034     1037 1
    1088     1034     1040 1
    1089     1035     1037 1
    1090     1035     1038 1
    1091     1036     1042 1
    1092     1036     1038 1
    1093     1037     1041 1
    1094     1038     1039 1
    1095     1043     1044 1
    1096     1044     1045 1
    1097     1044     1046 1
    1098     1044     1047 1
    1099     1045     1049 1
    1100     1045     1079 1
    1101     1045     1086 1
    1102     1048     1068 1
    1103     1048     1070 1
    1104     1048     1075 1
    1105     1048     1078 1
    1106     1049     1074 1
    1107     1050     1068 1
    1108     1051     1068 1
    1109     1052     1076 1
    1110     1053     1054 1
    1111     1053     1055 1
    1112     1053     1056 1
    1113     1054     1058 1
    1114     1054     1059 1
    1115     1054     1060 1
    1116     1056     1057 1
    1117     1058     1061 1
    1118     1058     1062 1
    1119     1058     1090 1
    1120     1061     1063 1
    1121     1061     1065 1
    1122     1063     1066 1
    1123     1063     1068 1
    1124     1064     1076 1
    1125     1065     1072 1
    1126     1065     1076 1
    1127     1066     1069 1
    1128     1066     1080 1
    1129     1067     1081 1
    1130     1069     1072 1
    1131     1069     1073 1
    1132     1071     1076 1
    1133     1072     1077 1
    1134     1073     1081 1
    1135     1073     1082 1
    1136     1073     1083 1
    1137     1074     1088 1
    1138     1074     1089 1
    1139     1077     1087 1
    1140     1077     1091 1
    1141     1077     1093 1
    1142     1081     1085 1
    1143     1081     1084 1
    1144     1094     1095 1
    1145     1094     1098 1
    1146     1094     1101 1
    1147     1095     1099 1
    1148     1095     1100 1
    1149     1096     1099 1
    1150     1096     1106 1
    1151     1096     1107 1
    1152     1096     1108 1
    1153     1097     1098 1
    1154     1097     1103 1
    1155     1097     1102 1
    1156     1098     1118 1
    1157     1099     1102 1
    1158     1102     1105 1
    1159     1104     1110 1
    1160     1104     1122 1
    1161     1106     1109 1
    1162     1106     1111 1
    1163     1109     1112 1
    1164     1109     1115 1
    1165     1110     1112 1
    1166     1110     1113 1
    1167     1111     1117 1
    1168     1111     1113 1
    1169     1112     1116 1
    1170     1113     1114 1
    1171     1118     1119 1
    1172     1119     1126 1
    1173     1119     1127 1
    1174     1119     1129 1
    1175     1120     1127 1
    1176     1121     1129 1
    1177     1122     1125 1
    1178     1122     1130 1
    1179     1122     1131 1
    1180     1123     1125 1
    1181     1124     1130 1
    1182     1127     1128 1
    1183     1130     1132 1
    1184     1133     1134 1
    1185     1133     1137 1
    1186     1133     1140 1
    1187     1134     1138 1
    1188     1134     1139 1
    1189     1135     1138 1
    1190     1135     1145 1
    1191     1135     1146 1
    1192     1135     1147 1
    1193     1136     1137 1
    1194     1136     1142 1
    1195     1136     1141 1
    1196     1137     1157 1
    1197     1138     1141 1
    1198     1141     1144 1
    1199     1143     1149 1
    1200     1143     1161 1
    1201     1145     1148 1
    1202     1145     1150 1
    1203     1148     1151 1
    1204     1148     1154 1
    1205     1149     1151 1
    1206     1149     1152 1
    1207     1150     1156 1
    1208     1150     1152 1
    1209     1151     1155 1
    1210     1152     1153 1
    1211     1157     1158 1
    1212     1158     1165 1
    1213     1158     1166 1
    1214     1158     1168 1
    1215     1159     1166 1
    1216     1160     1168 1
    1217     1161     1164 1
    1218     1161     1169 1
    1219     1161     1170 1
    1220     1162     1164 1
    1221     1163     1169 1
    1222     1166     1167 1
    1223     1169     1171 1
    1224     1172     1173 1
    1225     1172     1176 1
    1226     1172     1179 1
    1227     1173     1177 1
    1228     1173     1178 1
    1229     1174     1177 1
    1230     1174     1184 1
    1231     1174     1185 1
    1232     1174     1186 1
    1233     1175     1176 1
    1234     1175     1181 1
    1235     1175     1180 1
    1236     1176     1196 1
    1237     1177     1180 1
    1238     1180     1183 1
    1239     1182     1188 1
    1240     1182     1200 1
    1241     1184     1187 1
    1242     1184     1189 1
    1243     1187     1190 1
    1244     1187     1193 1
    1245     1188     1190 1
    1246     1188     1191 1
    1247     1189     1195 1
    1248     1189     1191 1
    1249     1190     1194 1
    1250     1191     1192 1
    1251     1196     1197 1
    1252     1197     1204 1
    1253     1197     1205 1
    1254     1197     1207 1
    1255     1198     1205 1
    1256     1199     1207 1
    1257     1200     1203 1
    1258     1200     1208 1
    1259     1200     1209 1
    1260     1201     1203 1
    1261     1202     1208 1
    1262     1205     1206 1
    1263     1208     1210 1
    1264     1211     1212 1
    1265     1211     1215 1
    1266     1211     1218 1
    1267     1212     1216 1
    1268     1212     1217 1
    1269     1213     1216 1
    1270     1213     1223 1
    1271     1213     1224 1
    1272     1213     1225 1
    1273     1214     1215 1
    1274     1214     1220 1
    1275     1214     1219 1
    1276     1215     1235 1
    1277     1216     1219 1
    1278     1219     1222 1
    1279     1221     1227 1
    1280     1221     1239 1
    1281     1223     1226 1
    1282     1223     1228 1
    1283     1226     1229 1
    1284     1226     1232 1
    1285     1227     1229 1
    1286     1227     1230 1
    1287     1228     1234 1
    1288     1228     1230 1
    1289     1229     1233 1
    1290     1230     1231 1
    1291     1235     1236 1
    1292     1236     1243 1
    1293     1236     1244 1
    1294     1236     1246 1
    1295     1237     1244 1
    1296     1238     1246 1
    1297     1239     1242 1
    1298     1239     1247 1
    1299     1239     1248 1
    1300     1240     1242 1
    1301     1241     1247 1
    1302     1244     1245 1
    1303     1247     1249 1
@<TRIPOS>SUBSTRUCTURE
       1 RES             1 RESIDUE    0 **** ROOT      0
