@<TRIPOS>MOLECULE
RES
1219 1273 1 0 1
SMALL
NO_CHARGES
@<TRIPOS>CRYSIN
  246.2706    61.2377    82.4114    90.0000    90.0000    90.0000 1 1
@<TRIPOS>ATOM
       1 C           22.1685   102.1197    12.0099 C             1 RES     
       2 C           24.0175   103.7098    11.9257 C             1 RES     
       3 C           28.6829   103.9847    11.9258 C             1 RES     
       4 C           23.7662    98.7277    11.9258 C             1 RES     
       5 C           22.2287   100.0878    11.9258 C             1 RES     
       6 C           25.9542   102.4088    11.9257 C             1 RES     
       7 H           24.0727   104.7783    11.9257 H             1 RES     
       8 H           21.1975   103.2375    11.9258 H             1 RES     
       9 C           25.8802   100.2060    11.9257 C             1 RES     
      10 H           23.7053    97.6594    11.9258 H             1 RES     
      11 O           39.9680    98.7141    13.6693 O             1 RES     
      12 H           26.8208    99.6958    11.9257 H             1 RES     
      13 C           31.3027   102.7962    11.9871 C             1 RES     
      14 H           28.6871   104.6024    11.0522 H             1 RES     
      15 H           28.6863   104.4875    12.8703 H             1 RES     
      16 C           33.3332   104.3518    11.9258 C             1 RES     
      17 C           35.5260    99.9742    12.8325 C             1 RES     
      18 C           31.1549    99.7749    11.9258 C             1 RES     
      19 C           35.4804   103.1300    11.8839 C             1 RES     
      20 C           33.2406    98.7633    11.8072 C             1 RES     
      21 H           33.4419    97.5292    11.6638 H             1 RES     
      22 H           33.3618   105.4214    11.9258 H             1 RES     
      23 H           36.3227   102.8153    11.4817 H             1 RES     
      24 H           30.1889    99.3146    11.9258 H             1 RES     
      25 O           20.3061    99.2327    12.7378 O             1 RES     
      26 C           18.5046   100.5376    13.5747 C             1 RES     
      27 C           15.7411    99.5683    13.4540 C             1 RES     
      28 H           18.4449   100.9791    14.9749 H             1 RES     
      29 H           18.0163   100.8589    12.1244 H             1 RES     
      30 C           43.2311   104.3036    15.8682 C             1 RES     
      31 O           13.4650   100.9870    11.6616 O             1 RES     
      32 H           46.6004   105.6333    16.4092 H             1 RES     
      33 H           45.8637   105.6824    17.8779 H             1 RES     
      34 H           48.6579    94.3635    20.3809 H             1 RES     
      35 C           41.0125    99.8777    13.4645 C             1 RES     
      36 C           43.7184    98.4521    14.0824 C             1 RES     
      37 H           39.9975   100.7400    13.9609 H             1 RES     
      38 O           41.2683   100.4900    11.8713 O             1 RES     
      39 H           41.1981   100.9952    10.8058 H             1 RES     
      40 N           45.0948    99.6333    13.9517 N             1 RES     
      41 H           43.3733    98.0032    15.1313 H             1 RES     
      42 H           44.2298    97.5596    12.5038 H             1 RES     
      43 C           46.9024    99.0141    18.1705 C             1 RES     
      44 C           46.8435   101.3800    17.8299 C             1 RES     
      45 H           49.6916    94.2310    18.5970 H             1 RES     
      46 C           49.1241    97.4708    19.2950 C             1 RES     
      47 C           48.9978   103.2783    18.6029 C             1 RES     
      48 H           54.3070   107.2379    20.0213 H             1 RES     
      49 C           45.9289   105.0579    17.0116 C             1 RES     
      50 C           50.8535   101.7905    19.6108 C             1 RES     
      51 H           42.6851   105.1916    15.6270 H             1 RES     
      52 H           50.3882    94.5350    20.2088 H             1 RES     
      53 C           51.1177    98.8105    20.0584 C             1 RES     
      54 C           53.3798   103.1459    19.3247 C             1 RES     
      55 C           11.0893   101.3746    11.2515 C             1 RES     
      56 H           43.3698   103.7187    14.9831 H             1 RES     
      57 C           49.4419    94.7139    19.7426 C             1 RES     
      58 N           55.6118    97.6641    17.5687 N             1 RES     
      59 H           42.6844   103.7338    16.5903 H             1 RES     
      60 H           15.2785    99.7456    12.2300 H             1 RES     
      61 H           49.0032   104.3422    18.4888 H             1 RES     
      62 C           54.6689   106.6221    20.8180 C             1 RES     
      63 H           54.1460   102.5495    18.5333 H             1 RES     
      64 H           53.7561   103.3656    19.5779 H             1 RES     
      65 H           54.3877   107.0517    21.7568 H             1 RES     
      66 H           55.7354   106.5558    20.7613 H             1 RES     
      67 H           16.3191    98.2955    12.3005 H             1 RES     
      68 H           45.3505    97.9061    13.9496 H             1 RES     
      69 H           11.2128   101.1771    12.8610 H             1 RES     
      70 H           11.6716   101.9562    10.0000 H             1 RES     
      71 C           71.2846    97.5812    17.7885 C             1 RES     
      72 C           73.2229    99.0374    17.5117 C             1 RES     
      73 C           77.8881    98.9993    17.2354 C             1 RES     
      74 C           72.6550    94.0902    17.8062 C             1 RES     
      75 C           71.2101    95.5482    17.8157 C             1 RES     
      76 C           75.0693    97.6116    17.4766 C             1 RES     
      77 H           73.3461   100.0984    17.4485 H             1 RES     
      78 H           70.3836    98.7555    17.6961 H             1 RES     
      79 C           74.8552    95.4217    17.6047 C             1 RES     
      80 H           72.5262    93.0298    17.8697 H             1 RES     
      81 O           88.8980    93.0844    18.6388 O             1 RES     
      82 H           75.7597    94.8505    17.5808 H             1 RES     
      83 C           80.4258    97.6430    17.2168 C             1 RES     
      84 H           77.8797    99.5686    16.3296 H             1 RES     
      85 H           77.9797    99.5496    18.1484 H             1 RES     
      86 C           82.5441    99.0540    16.9546 C             1 RES     
      87 C           84.5034    94.5931    17.9822 C             1 RES     
      88 C           80.0823    94.6393    17.3340 C             1 RES     
      89 C           84.6027    97.6907    16.8615 C             1 RES     
      90 C           82.0885    93.4857    17.1560 C             1 RES     
      91 H           82.2019    92.2350    17.0713 H             1 RES     
      92 H           82.6408   100.1178    16.8929 H             1 RES     
      93 H           85.3978    97.2997    16.4312 H             1 RES     
      94 H           79.0907    94.2453    17.4139 H             1 RES     
      95 O           69.2886    94.8675    18.7808 O             1 RES     
      96 C           67.6269    96.3321    19.6424 C             1 RES     
      97 C           64.8050    95.5448    19.7311 C             1 RES     
      98 H           67.6789    96.8495    21.0166 H             1 RES     
      99 H           67.0747    96.6087    18.2059 H             1 RES     
     100 C           92.6358    98.5507    20.3337 C             1 RES     
     101 O           62.5214    97.0165    17.9919 O             1 RES     
     102 H           96.1092    99.6786    20.6097 H             1 RES     
     103 H           95.4658    99.8539    22.1123 H             1 RES     
     104 H           97.6767    88.5205    25.0880 H             1 RES     
     105 C           90.0005    94.1631    18.3107 C             1 RES     
     106 C           92.6420    92.5941    18.8555 C             1 RES     
     107 H           89.0738    95.1163    18.8138 H             1 RES     
     108 O           90.1995    94.6725    16.6738 O             1 RES     
     109 H           90.0984    95.1246    15.5871 H             1 RES     
     110 N           94.0806    93.6721    18.5818 N             1 RES     
     111 H           92.3320    92.2250    19.9457 H             1 RES     
     112 H           93.0006    91.5878    17.3035 H             1 RES     
     113 C           96.0929    93.1557    22.7210 C             1 RES     
     114 H          104.6228    89.8246    21.7837 H             1 RES     
     115 C           96.1647    95.4991    22.2517 C             1 RES     
     116 H           98.5919    88.2257    23.2593 H             1 RES     
     117 C           98.2746    91.5283    23.8046 C             1 RES     
     118 C           98.4778    97.2869    22.7949 C             1 RES     
     119 H          104.1036   100.9515    23.6891 H             1 RES     
     120 C           95.4394    99.1819    21.2802 C             1 RES     
     121 C          100.2916    95.7333    23.7796 C             1 RES     
     122 H           92.1341    99.4594    20.0738 H             1 RES     
     123 H           99.4011    88.5666    24.8100 H             1 RES     
     124 C          100.3914    92.7699    24.3787 C             1 RES     
     125 C          102.8777    96.8998    23.2768 C             1 RES     
     126 C           60.1550    97.5401    17.6941 C             1 RES     
     127 H           92.6840    97.9122    19.4766 H             1 RES     
     128 C           98.4421    88.7837    24.3881 C             1 RES     
     129 N          104.6472    91.1963    21.7100 N             1 RES     
     130 H           92.0978    98.0575    21.1162 H             1 RES     
     131 H           64.2826    95.6882    18.5269 H             1 RES     
     132 H           98.5443    98.3406    22.6210 H             1 RES     
     133 C          104.4723   100.3555    24.4977 C             1 RES     
     134 H          103.5558    96.2127    22.4786 H             1 RES     
     135 H          103.2816    97.1068    23.4958 H             1 RES     
     136 H          104.2754   100.8517    25.4251 H             1 RES     
     137 H          105.5271   100.2152    24.3853 H             1 RES     
     138 H           65.2310    94.1774    18.6206 H             1 RES     
     139 H           94.2251    91.9339    18.6626 H             1 RES     
     140 H           60.3612    97.4196    19.3028 H             1 RES     
     141 H           60.6977    98.0150    16.3813 H             1 RES     
     142 C          120.2681    90.0768    21.0572 C             1 RES     
     143 C          122.2754    91.3836    20.5909 C             1 RES     
     144 C          126.9040    91.0190    20.0566 C             1 RES     
     145 C          121.4118    86.5077    21.1945 C             1 RES     
     146 C          120.0659    88.0576    21.2028 C             1 RES     
     147 C          124.0218    89.8376    20.5328 C             1 RES     
     148 H          122.4619    92.4291    20.4613 H             1 RES     
     149 H          119.4399    91.3023    20.9494 H             1 RES     
     150 C          123.6765    87.6767    20.7957 C             1 RES     
     151 H          121.2197    85.4632    21.3247 H             1 RES     
     152 O          137.5783    84.4627    21.1726 O             1 RES     
     153 H          124.5397    87.0457    20.7534 H             1 RES     
     154 C          129.3444    89.4969    19.9725 C             1 RES     
     155 H          126.8780    91.5393    19.1221 H             1 RES     
     156 H          127.0846    91.6091    20.9307 H             1 RES     
     157 C          131.5290    90.7473    19.5133 C             1 RES     
     158 C          133.2576    86.2255    20.6789 C             1 RES     
     159 C          128.8177    86.5333    20.2775 C             1 RES     
     160 C          133.4873    89.2464    19.3820 C             1 RES     
     161 C          130.7322    85.2402    20.0528 C             1 RES     
     162 H          130.7603    83.9821    20.0324 H             1 RES     
     163 H          131.6894    91.7975    19.3864 H             1 RES     
     164 H          134.2289    88.7810    18.9305 H             1 RES     
     165 H          127.8095    86.2112    20.4348 H             1 RES     
     166 O          118.1657    87.5585    22.3106 O             1 RES     
     167 C          116.6550    89.1742    23.1800 C             1 RES     
     168 C          113.7989    88.5832    23.4706 C             1 RES     
     169 H          116.8215    89.7584    24.5179 H             1 RES     
     170 H          116.0371    89.4114    21.7634 H             1 RES     
     171 C          141.7512    89.7482    22.3456 C             1 RES     
     172 O          111.5143    90.1111    21.7818 O             1 RES     
     173 H          145.2997    90.6541    22.3630 H             1 RES     
     174 H          144.7593    90.9507    23.8869 H             1 RES     
     175 H          146.4164    79.6666    27.3672 H             1 RES     
     176 C          138.7259    85.4466    20.7232 C             1 RES     
     177 C          141.2897    83.7351    21.2069 C             1 RES     
     178 H          137.8935    86.4846    21.2229 H             1 RES     
     179 O          138.8593    85.8548    19.0516 O             1 RES     
     180 H          138.7227    86.2551    17.9486 H             1 RES     
     181 N          142.7753    84.6986    20.7929 N             1 RES     
     182 H          141.0222    83.4453    22.3317 H             1 RES     
     183 H          141.4905    82.6270    19.6963 H             1 RES     
     184 C          144.9932    84.2667    24.8356 C             1 RES     
     185 H          153.2225    80.3279    23.6115 H             1 RES     
     186 C          145.1863    86.5721    24.2318 C             1 RES     
     187 H          147.2005    79.2156    25.5098 H             1 RES     
     188 C          147.1274    82.5562    25.8852 C             1 RES     
     189 C          147.6369    88.2273    24.5434 C             1 RES     
     190 H          153.5280    91.5492    24.9139 H             1 RES     
     191 C          144.6407    90.2391    23.0967 C             1 RES     
     192 C          149.4032    86.6097    25.5109 C             1 RES     
     193 H          141.2939    90.6735    22.0634 H             1 RES     
     194 H          148.1206    79.5826    26.9911 H             1 RES     
     195 C          149.3495    83.6818    26.2692 C             1 RES     
     196 C          152.0239    87.5725    24.7994 C             1 RES     
     197 C          109.1727    90.7755    21.5879 C             1 RES     
     198 H          141.7075    89.0638    21.5243 H             1 RES     
     199 C          147.1540    79.8409    26.6120 C             1 RES     
     200 N          153.3299    81.6892    23.4595 N             1 RES     
     201 H          141.2304    89.3338    23.1834 H             1 RES     
     202 H          113.2161    88.6978    22.2913 H             1 RES     
     203 H          147.7598    89.2636    24.3070 H             1 RES     
     204 C          153.9054    90.9732    25.7328 C             1 RES     
     205 H          152.6082    86.8007    24.0045 H             1 RES     
     206 H          152.4525    87.7633    24.9835 H             1 RES     
     207 H          153.7961    91.5294    26.6404 H             1 RES     
     208 H          154.9406    90.7569    25.5696 H             1 RES     
     209 H          114.0701    87.1340    22.4167 H             1 RES     
     210 H          142.8133    82.9613    20.9631 H             1 RES     
     211 H          109.4661    90.7260    23.1867 H             1 RES     
     212 H          109.6655    91.1434    20.2221 H             1 RES     
     213 C          168.7811    79.4945    21.9980 C             1 RES     
     214 C          170.8364    80.6378    21.3474 C             1 RES     
     215 C          175.3922    79.9368    20.5764 C             1 RES     
     216 C          169.7011    75.8690    22.2718 C             1 RES     
     217 C          168.4596    77.5038    22.2681 C             1 RES     
     218 C          172.4741    78.9775    21.2788 C             1 RES     
     219 H          171.0811    81.6602    21.1489 H             1 RES     
     220 H          168.0278    80.7653    21.8679 H             1 RES     
     221 C          172.0080    76.8613    21.6817 C             1 RES     
     222 H          169.4509    74.8479    22.4711 H             1 RES     
     223 O          185.6744    72.7488    21.4608 O             1 RES     
     224 H          172.8251    76.1727    21.6268 H             1 RES     
     225 C          177.7214    78.2526    20.4417 C             1 RES     
     226 H          175.3439    80.4079    19.6170 H             1 RES     
     227 H          175.6618    80.5586    21.4044 H             1 RES     
     228 C          179.9500    79.3282    19.7914 C             1 RES     
     229 C          181.4531    74.7683    21.1111 C             1 RES     
     230 C          177.0259    75.3509    20.9420 C             1 RES     
     231 C          181.7974    77.6949    19.6355 C             1 RES     
     232 C          178.8373    73.9227    20.6837 C             1 RES     
     233 H          178.7839    72.6661    20.7325 H             1 RES     
     234 H          180.1692    80.3572    19.5969 H             1 RES     
     235 H          182.4796    77.1579    19.1701 H             1 RES     
     236 H          176.0103    75.1057    21.1733 H             1 RES     
     237 O          166.6008    77.1917    23.5068 O             1 RES     
     238 C          165.2506    78.9482    24.3670 C             1 RES     
     239 C          162.3849    78.5657    24.8497 C             1 RES     
     240 H          165.5333    79.5894    25.6585 H             1 RES     
     241 H          164.5658    79.1516    22.9760 H             1 RES     
     242 C          190.2381    77.7976    22.0992 C             1 RES     
     243 O          160.1060    80.1522    23.2080 O             1 RES     
     244 H          193.8318    78.4638    21.8671 H             1 RES     
     245 H          193.4031    78.8754    23.3998 H             1 RES     
     246 H          194.5416    67.7040    27.4114 H             1 RES     
     247 C          186.8535    73.6287    20.8932 C             1 RES     
     248 C          189.3273    71.7774    21.3283 C             1 RES     
     249 H          186.1202    74.7449    21.3795 H             1 RES     
     250 O          186.9130    73.9389    19.1965 O             1 RES     
     251 H          186.7369    74.2889    18.0821 H             1 RES     
     252 N          190.8440    72.6162    20.7783 N             1 RES     
     253 H          189.1092    71.5655    22.4808 H             1 RES     
     254 H          189.3668    70.5805    19.8736 H             1 RES     
     255 C          193.2665    72.2497    24.7085 C             1 RES     
     256 C          193.5698    74.5022    23.9661 C             1 RES     
     257 H          195.1834    67.1047    25.5413 H             1 RES     
     258 C          195.3459    70.4578    25.7317 C             1 RES     
     259 C          196.1351    76.0039    24.0465 C             1 RES     
     260 H          202.2377    78.9391    23.8994 H             1 RES     
     261 C          193.1925    78.1329    22.6588 C             1 RES     
     262 C          197.8492    74.3247    25.0032 C             1 RES     
     263 H          189.8247    78.7353    21.7915 H             1 RES     
     264 H          196.2116    67.4865    26.9458 H             1 RES     
     265 C          197.6541    71.4508    25.9269 C             1 RES     
     266 C          200.4790    75.0714    24.0932 C             1 RES     
     267 C          157.8041    80.9607    23.1083 C             1 RES     
     268 H          190.1021    77.0754    21.3215 H             1 RES     
     269 C          195.2425    67.7886    26.6075 C             1 RES     
     270 N          201.3252    69.0516    23.0154 N             1 RES     
     271 H          189.7427    77.4635    22.9869 H             1 RES     
     272 H          161.7414    78.6570    23.7003 H             1 RES     
     273 H          196.3096    77.0158    23.7457 H             1 RES     
     274 C          202.6256    78.3829    24.7271 C             1 RES     
     275 H          200.9645    74.2216    23.3115 H             1 RES     
     276 H          200.9291    75.2424    24.2420 H             1 RES     
     277 H          202.6061    78.9920    25.6066 H             1 RES     
     278 H          203.6333    78.0895    24.5187 H             1 RES     
     279 H          162.5000    77.0483    23.8655 H             1 RES     
     280 H          190.7812    70.8916    21.0436 H             1 RES     
     281 H          158.1883    80.9756    24.6884 H             1 RES     
     282 H          158.2372    81.2226    21.6986 H             1 RES     
     283 C          216.4908    65.7546    20.8179 C             1 RES     
     284 C          218.5723    66.7221    19.9900 C             1 RES     
     285 C          223.0203    65.6785    19.0061 C             1 RES     
     286 C          217.1924    62.0951    21.2433 C             1 RES     
     287 C          216.0596    63.8068    21.2171 C             1 RES     
     288 C          220.0939    64.9547    19.9235 C             1 RES     
     289 H          218.8695    67.7141    19.7209 H             1 RES     
     290 H          215.8135    67.0643    20.6588 H             1 RES     
     291 C          219.5186    62.8985    20.4703 C             1 RES     
     292 H          216.8899    61.1049    21.5135 H             1 RES     
     293 O          232.8576    57.8750    19.7170 O             1 RES     
     294 H          220.2855    62.1548    20.4086 H             1 RES     
     295 C          225.2252    63.8375    18.8363 C             1 RES     
     296 H          222.9451    66.1007    18.0259 H             1 RES     
     297 H          223.3778    66.3234    19.7815 H             1 RES     
     298 C          227.4752    64.7259    18.0029 C             1 RES     
     299 C          228.7604    60.1513    19.4910 C             1 RES     
     300 C          224.3771    61.0191    19.5372 C             1 RES     
     301 C          229.2022    62.9668    17.8360 C             1 RES     
     302 C          226.0752    59.4613    19.2588 C             1 RES     
     303 H          225.9448    58.2154    19.3811 H             1 RES     
     304 H          227.7476    65.7264    17.7388 H             1 RES     
     305 H          229.8198    62.3617    17.3642 H             1 RES     
     306 H          223.3636    60.8548    19.8384 H             1 RES     
     307 O          214.2617    63.6852    22.5734 O             1 RES     
     308 C          213.0797    65.5708    23.4076 C             1 RES     
     309 C          210.2294    65.4067    24.0706 C             1 RES     
     310 H          213.4791    66.2585    24.6432 H             1 RES     
     311 H          212.3278    65.7463    22.0479 H             1 RES     
     312 C          237.7638    62.6338    19.8141 C             1 RES     
     313 O          207.9626    67.0538    22.4723 O             1 RES     
     314 H          241.3725    63.0450    19.3443 H             1 RES     
     315 H          241.0628    63.5642    20.8729 H             1 RES     
     316 H          241.7235    52.5677    25.4368 H             1 RES     
     317 C          234.0546    58.6432    19.0358 C             1 RES     
     318 C          236.4268    56.6559    19.4353 C             1 RES     
     319 H          233.4242    59.8299    19.4988 H             1 RES     
     320 O          234.0327    58.8591    17.3237 O             1 RES     
     321 H          233.8133    59.1612    16.2029 H             1 RES     
     322 N          237.9585    57.3614    18.7550 N             1 RES     
     323 H          236.2647    56.5198    20.6083 H             1 RES     
     324 H          236.3033    55.3843    18.0503 H             1 RES     
     325 C          240.5822    57.0404    22.5579 C             1 RES     
     326 H          248.0501    51.9142    20.9186 H             1 RES     
     327 C          240.9839    59.2255    21.6742 C             1 RES     
     328 H          242.2135    51.8295    23.5704 H             1 RES     
     329 C          242.6004    55.1695    23.5624 C             1 RES     
     330 C          243.6399    60.5543    21.5263 C             1 RES     
     331 H          249.8975    63.0629    20.8732 H             1 RES     
     332 C          240.7617    62.7996    20.1878 C             1 RES     
     333 C          245.2973    58.8167    22.4786 C             1 RES     
     334 H          237.3935    63.5796    19.4777 H             1 RES     
     335 H          243.3456    52.2149    24.8915 H             1 RES     
     336 C          244.9747    56.0148    23.5721 C             1 RES     
     337 C          247.9105    59.3371    21.3824 C             1 RES     
     338 C          205.7150    68.0080    22.4561 C             1 RES     
     339 H          237.5360    61.8825    19.0871 H             1 RES     
     340 C          242.3794    52.5630    24.5914 C             1 RES     
     341 N          248.3057    53.2259    20.5994 N             1 RES     
     342 H          237.3018    62.3806    20.7455 H             1 RES     
     343 H          209.5257    65.4804    22.9557 H             1 RES     
     344 H          243.8604    61.5351    21.1598 H             1 RES     
     345 C          250.2978    62.5262    21.7079 C             1 RES     
     346 H          248.2936    58.4168    20.6238 H             1 RES     
     347 H          248.3787    59.4852    21.4959 H             1 RES     
     348 H          250.3695    63.1806    22.5515 H             1 RES     
     349 H          251.2706    62.1556    21.4603 H             1 RES     
     350 H          210.1887    63.8354    23.1684 H             1 RES     
     351 H          237.8018    55.6611    19.1200 H             1 RES     
     352 H          206.1928    68.0802    24.0090 H             1 RES     
     353 H          206.0793    68.1661    21.0119 H             1 RES     
     354 H           10.0000   101.3364    11.1579 H             1 RES     
     355 H          249.3339    52.8980    20.4203 H             1 RES     
     356 C           22.1685   102.1197    42.0099 C             1 RES     
     357 C           24.0175   103.7098    41.9257 C             1 RES     
     358 C           28.6829   103.9847    41.9258 C             1 RES     
     359 C           23.7662    98.7277    41.9258 C             1 RES     
     360 C           22.2287   100.0878    41.9258 C             1 RES     
     361 C           25.9542   102.4088    41.9257 C             1 RES     
     362 H           24.0727   104.7783    41.9257 H             1 RES     
     363 H           21.1975   103.2375    41.9258 H             1 RES     
     364 C           25.8802   100.2060    41.9257 C             1 RES     
     365 H           23.7053    97.6594    41.9258 H             1 RES     
     366 O           39.9680    98.7141    43.6693 O             1 RES     
     367 H           26.8208    99.6958    41.9257 H             1 RES     
     368 C           31.3027   102.7962    41.9871 C             1 RES     
     369 H           28.6871   104.6024    41.0522 H             1 RES     
     370 H           28.6863   104.4875    42.8703 H             1 RES     
     371 C           33.3332   104.3518    41.9258 C             1 RES     
     372 C           35.5260    99.9742    42.8325 C             1 RES     
     373 C           31.1549    99.7749    41.9258 C             1 RES     
     374 C           35.4804   103.1300    41.8839 C             1 RES     
     375 C           33.2406    98.7633    41.8072 C             1 RES     
     376 H           33.4419    97.5292    41.6638 H             1 RES     
     377 H           33.3618   105.4214    41.9258 H             1 RES     
     378 H           36.3227   102.8153    41.4817 H             1 RES     
     379 H           30.1889    99.3146    41.9258 H             1 RES     
     380 O           20.3061    99.2327    42.7378 O             1 RES     
     381 C           18.5046   100.5376    43.5747 C             1 RES     
     382 C           15.7411    99.5683    43.4540 C             1 RES     
     383 H           18.4449   100.9791    44.9749 H             1 RES     
     384 H           18.0163   100.8589    42.1244 H             1 RES     
     385 C           43.2311   104.3036    45.8682 C             1 RES     
     386 O           13.4650   100.9870    41.6616 O             1 RES     
     387 H           46.6004   105.6333    46.4092 H             1 RES     
     388 H           45.8637   105.6824    47.8779 H             1 RES     
     389 H           48.6579    94.3635    50.3809 H             1 RES     
     390 C           41.0125    99.8777    43.4645 C             1 RES     
     391 C           43.7184    98.4521    44.0824 C             1 RES     
     392 H           39.9975   100.7400    43.9609 H             1 RES     
     393 O           41.2683   100.4900    41.8713 O             1 RES     
     394 H           41.1981   100.9952    40.8058 H             1 RES     
     395 N           45.0948    99.6333    43.9517 N             1 RES     
     396 H           43.3733    98.0032    45.1313 H             1 RES     
     397 H           44.2298    97.5596    42.5038 H             1 RES     
     398 C           46.9024    99.0141    48.1705 C             1 RES     
     399 C           46.8435   101.3800    47.8299 C             1 RES     
     400 H           49.6916    94.2310    48.5970 H             1 RES     
     401 C           49.1241    97.4708    49.2950 C             1 RES     
     402 C           48.9978   103.2783    48.6029 C             1 RES     
     403 H           54.3070   107.2379    50.0213 H             1 RES     
     404 C           45.9289   105.0579    47.0116 C             1 RES     
     405 C           50.8535   101.7905    49.6108 C             1 RES     
     406 H           42.6851   105.1916    45.6270 H             1 RES     
     407 H           50.3882    94.5350    50.2088 H             1 RES     
     408 C           51.1177    98.8105    50.0584 C             1 RES     
     409 C           53.3798   103.1459    49.3247 C             1 RES     
     410 C           11.0893   101.3746    41.2515 C             1 RES     
     411 H           43.3698   103.7187    44.9831 H             1 RES     
     412 C           49.4419    94.7139    49.7426 C             1 RES     
     413 N           55.6118    97.6641    47.5687 N             1 RES     
     414 H           42.6844   103.7338    46.5903 H             1 RES     
     415 H           15.2785    99.7456    42.2300 H             1 RES     
     416 H           49.0032   104.3422    48.4888 H             1 RES     
     417 C           54.6689   106.6221    50.8180 C             1 RES     
     418 H           54.1460   102.5495    48.5333 H             1 RES     
     419 H           53.7561   103.3656    49.5779 H             1 RES     
     420 H           54.3877   107.0517    51.7568 H             1 RES     
     421 H           55.7354   106.5558    50.7613 H             1 RES     
     422 H           16.3191    98.2955    42.3005 H             1 RES     
     423 H           11.2128   101.1771    42.8610 H             1 RES     
     424 H           11.6716   101.9562    40.0000 H             1 RES     
     425 C           71.2846    97.5812    47.7885 C             1 RES     
     426 C           73.2229    99.0374    47.5117 C             1 RES     
     427 C           77.8881    98.9993    47.2354 C             1 RES     
     428 C           72.6550    94.0902    47.8062 C             1 RES     
     429 C           71.2101    95.5482    47.8157 C             1 RES     
     430 C           75.0693    97.6116    47.4766 C             1 RES     
     431 H           73.3461   100.0984    47.4485 H             1 RES     
     432 H           70.3836    98.7555    47.6961 H             1 RES     
     433 C           74.8552    95.4217    47.6047 C             1 RES     
     434 H           72.5262    93.0298    47.8697 H             1 RES     
     435 O           88.8980    93.0844    48.6388 O             1 RES     
     436 H           75.7597    94.8505    47.5808 H             1 RES     
     437 C           80.4258    97.6430    47.2168 C             1 RES     
     438 H           77.8797    99.5686    46.3296 H             1 RES     
     439 H           77.9797    99.5496    48.1484 H             1 RES     
     440 C           82.5441    99.0540    46.9546 C             1 RES     
     441 C           84.5034    94.5931    47.9822 C             1 RES     
     442 C           80.0823    94.6393    47.3340 C             1 RES     
     443 C           84.6027    97.6907    46.8615 C             1 RES     
     444 C           82.0885    93.4857    47.1560 C             1 RES     
     445 H           82.2019    92.2350    47.0713 H             1 RES     
     446 H           82.6408   100.1178    46.8929 H             1 RES     
     447 H           85.3978    97.2997    46.4312 H             1 RES     
     448 H           79.0907    94.2453    47.4139 H             1 RES     
     449 O           69.2886    94.8675    48.7808 O             1 RES     
     450 C           67.6269    96.3321    49.6424 C             1 RES     
     451 C           64.8050    95.5448    49.7311 C             1 RES     
     452 H           67.6789    96.8495    51.0166 H             1 RES     
     453 H           67.0747    96.6087    48.2059 H             1 RES     
     454 C           92.6358    98.5507    50.3337 C             1 RES     
     455 O           62.5214    97.0165    47.9919 O             1 RES     
     456 H           96.1092    99.6786    50.6097 H             1 RES     
     457 H           95.4658    99.8539    52.1123 H             1 RES     
     458 H           97.6767    88.5205    55.0880 H             1 RES     
     459 C           90.0005    94.1631    48.3107 C             1 RES     
     460 C           92.6420    92.5941    48.8555 C             1 RES     
     461 H           89.0738    95.1163    48.8138 H             1 RES     
     462 O           90.1995    94.6725    46.6738 O             1 RES     
     463 H           90.0984    95.1246    45.5871 H             1 RES     
     464 N           94.0806    93.6721    48.5818 N             1 RES     
     465 H           92.3320    92.2250    49.9457 H             1 RES     
     466 H           93.0006    91.5878    47.3035 H             1 RES     
     467 C           96.0929    93.1557    52.7210 C             1 RES     
     468 H          104.6228    89.8246    51.7837 H             1 RES     
     469 C           96.1647    95.4991    52.2517 C             1 RES     
     470 H           98.5919    88.2257    53.2593 H             1 RES     
     471 C           98.2746    91.5283    53.8046 C             1 RES     
     472 C           98.4778    97.2869    52.7949 C             1 RES     
     473 H          104.1036   100.9515    53.6891 H             1 RES     
     474 C           95.4394    99.1819    51.2802 C             1 RES     
     475 C          100.2916    95.7333    53.7796 C             1 RES     
     476 H           92.1341    99.4594    50.0738 H             1 RES     
     477 H           99.4011    88.5666    54.8100 H             1 RES     
     478 C          100.3914    92.7699    54.3787 C             1 RES     
     479 C          102.8777    96.8998    53.2768 C             1 RES     
     480 C           60.1550    97.5401    47.6941 C             1 RES     
     481 H           92.6840    97.9122    49.4766 H             1 RES     
     482 C           98.4421    88.7837    54.3881 C             1 RES     
     483 N          104.6472    91.1963    51.7100 N             1 RES     
     484 H           92.0978    98.0575    51.1162 H             1 RES     
     485 H           64.2826    95.6882    48.5269 H             1 RES     
     486 H           98.5443    98.3406    52.6210 H             1 RES     
     487 C          104.4723   100.3555    54.4977 C             1 RES     
     488 H          103.5558    96.2127    52.4786 H             1 RES     
     489 H          103.2816    97.1068    53.4958 H             1 RES     
     490 H          104.2754   100.8517    55.4251 H             1 RES     
     491 H          105.5271   100.2152    54.3853 H             1 RES     
     492 H           65.2310    94.1774    48.6206 H             1 RES     
     493 H           60.3612    97.4196    49.3028 H             1 RES     
     494 H           60.6977    98.0150    46.3813 H             1 RES     
     495 C          120.2681    90.0768    51.0572 C             1 RES     
     496 C          122.2754    91.3836    50.5909 C             1 RES     
     497 C          126.9040    91.0190    50.0566 C             1 RES     
     498 C          121.4118    86.5077    51.1945 C             1 RES     
     499 C          120.0659    88.0576    51.2028 C             1 RES     
     500 C          124.0218    89.8376    50.5328 C             1 RES     
     501 H          122.4619    92.4291    50.4613 H             1 RES     
     502 H          119.4399    91.3023    50.9494 H             1 RES     
     503 C          123.6765    87.6767    50.7957 C             1 RES     
     504 H          121.2197    85.4632    51.3247 H             1 RES     
     505 O          137.5783    84.4627    51.1726 O             1 RES     
     506 H          124.5397    87.0457    50.7534 H             1 RES     
     507 C          129.3444    89.4969    49.9725 C             1 RES     
     508 H          126.8780    91.5393    49.1221 H             1 RES     
     509 H          127.0846    91.6091    50.9307 H             1 RES     
     510 C          131.5290    90.7473    49.5133 C             1 RES     
     511 C          133.2576    86.2255    50.6789 C             1 RES     
     512 C          128.8177    86.5333    50.2775 C             1 RES     
     513 C          133.4873    89.2464    49.3820 C             1 RES     
     514 C          130.7322    85.2402    50.0528 C             1 RES     
     515 H          130.7603    83.9821    50.0324 H             1 RES     
     516 H          131.6894    91.7975    49.3864 H             1 RES     
     517 H          134.2289    88.7810    48.9305 H             1 RES     
     518 H          127.8095    86.2112    50.4348 H             1 RES     
     519 O          118.1657    87.5585    52.3106 O             1 RES     
     520 C          116.6550    89.1742    53.1800 C             1 RES     
     521 C          113.7989    88.5832    53.4706 C             1 RES     
     522 H          116.8215    89.7584    54.5179 H             1 RES     
     523 H          116.0371    89.4114    51.7634 H             1 RES     
     524 C          141.7512    89.7482    52.3456 C             1 RES     
     525 O          111.5143    90.1111    51.7818 O             1 RES     
     526 H          145.2997    90.6541    52.3630 H             1 RES     
     527 H          144.7593    90.9507    53.8869 H             1 RES     
     528 H          146.4164    79.6666    57.3672 H             1 RES     
     529 C          138.7259    85.4466    50.7232 C             1 RES     
     530 C          141.2897    83.7351    51.2069 C             1 RES     
     531 H          137.8935    86.4846    51.2229 H             1 RES     
     532 O          138.8593    85.8548    49.0516 O             1 RES     
     533 H          138.7227    86.2551    47.9486 H             1 RES     
     534 N          142.7753    84.6986    50.7929 N             1 RES     
     535 H          141.0222    83.4453    52.3317 H             1 RES     
     536 H          141.4905    82.6270    49.6963 H             1 RES     
     537 C          144.9932    84.2667    54.8356 C             1 RES     
     538 H          153.2225    80.3279    53.6115 H             1 RES     
     539 C          145.1863    86.5721    54.2318 C             1 RES     
     540 H          147.2005    79.2156    55.5098 H             1 RES     
     541 C          147.1274    82.5562    55.8852 C             1 RES     
     542 C          147.6369    88.2273    54.5434 C             1 RES     
     543 H          153.5280    91.5492    54.9139 H             1 RES     
     544 C          144.6407    90.2391    53.0967 C             1 RES     
     545 C          149.4032    86.6097    55.5109 C             1 RES     
     546 H          141.2939    90.6735    52.0634 H             1 RES     
     547 H          148.1206    79.5826    56.9911 H             1 RES     
     548 C          149.3495    83.6818    56.2692 C             1 RES     
     549 C          152.0239    87.5725    54.7994 C             1 RES     
     550 C          109.1727    90.7755    51.5879 C             1 RES     
     551 H          141.7075    89.0638    51.5243 H             1 RES     
     552 C          147.1540    79.8409    56.6120 C             1 RES     
     553 N          153.3299    81.6892    53.4595 N             1 RES     
     554 H          141.2304    89.3338    53.1834 H             1 RES     
     555 H          113.2161    88.6978    52.2913 H             1 RES     
     556 H          147.7598    89.2636    54.3070 H             1 RES     
     557 C          153.9054    90.9732    55.7328 C             1 RES     
     558 H          152.6082    86.8007    54.0045 H             1 RES     
     559 H          152.4525    87.7633    54.9835 H             1 RES     
     560 H          153.7961    91.5294    56.6404 H             1 RES     
     561 H          154.9406    90.7569    55.5696 H             1 RES     
     562 H          114.0701    87.1340    52.4167 H             1 RES     
     563 H          142.8133    82.9613    50.9631 H             1 RES     
     564 H          109.4661    90.7260    53.1867 H             1 RES     
     565 H          109.6655    91.1434    50.2221 H             1 RES     
     566 C          168.7811    79.4945    51.9980 C             1 RES     
     567 C          170.8364    80.6378    51.3474 C             1 RES     
     568 C          175.3922    79.9368    50.5764 C             1 RES     
     569 C          169.7011    75.8690    52.2718 C             1 RES     
     570 C          168.4596    77.5038    52.2681 C             1 RES     
     571 C          172.4741    78.9775    51.2788 C             1 RES     
     572 H          171.0811    81.6602    51.1489 H             1 RES     
     573 H          168.0278    80.7653    51.8679 H             1 RES     
     574 C          172.0080    76.8613    51.6817 C             1 RES     
     575 H          169.4509    74.8479    52.4711 H             1 RES     
     576 O          185.6744    72.7488    51.4608 O             1 RES     
     577 H          172.8251    76.1727    51.6268 H             1 RES     
     578 C          177.7214    78.2526    50.4417 C             1 RES     
     579 H          175.3439    80.4079    49.6170 H             1 RES     
     580 H          175.6618    80.5586    51.4044 H             1 RES     
     581 C          179.9500    79.3282    49.7914 C             1 RES     
     582 C          181.4531    74.7683    51.1111 C             1 RES     
     583 C          177.0259    75.3509    50.9420 C             1 RES     
     584 C          181.7974    77.6949    49.6355 C             1 RES     
     585 C          178.8373    73.9227    50.6837 C             1 RES     
     586 H          178.7839    72.6661    50.7325 H             1 RES     
     587 H          180.1692    80.3572    49.5969 H             1 RES     
     588 H          182.4796    77.1579    49.1701 H             1 RES     
     589 H          176.0103    75.1057    51.1733 H             1 RES     
     590 O          166.6008    77.1917    53.5068 O             1 RES     
     591 C          165.2506    78.9482    54.3670 C             1 RES     
     592 C          162.3849    78.5657    54.8497 C             1 RES     
     593 H          165.5333    79.5894    55.6585 H             1 RES     
     594 H          164.5658    79.1516    52.9760 H             1 RES     
     595 C          190.2381    77.7976    52.0992 C             1 RES     
     596 O          160.1060    80.1522    53.2080 O             1 RES     
     597 H          193.8318    78.4638    51.8671 H             1 RES     
     598 H          193.4031    78.8754    53.3998 H             1 RES     
     599 H          194.5416    67.7040    57.4114 H             1 RES     
     600 C          186.8535    73.6287    50.8932 C             1 RES     
     601 C          189.3273    71.7774    51.3283 C             1 RES     
     602 H          186.1202    74.7449    51.3795 H             1 RES     
     603 O          186.9130    73.9389    49.1965 O             1 RES     
     604 H          186.7369    74.2889    48.0821 H             1 RES     
     605 N          190.8440    72.6162    50.7783 N             1 RES     
     606 H          189.1092    71.5655    52.4808 H             1 RES     
     607 H          189.3668    70.5805    49.8736 H             1 RES     
     608 C          193.2665    72.2497    54.7085 C             1 RES     
     609 C          193.5698    74.5022    53.9661 C             1 RES     
     610 H          195.1834    67.1047    55.5413 H             1 RES     
     611 C          195.3459    70.4578    55.7317 C             1 RES     
     612 C          196.1351    76.0039    54.0465 C             1 RES     
     613 H          202.2377    78.9391    53.8994 H             1 RES     
     614 C          193.1925    78.1329    52.6588 C             1 RES     
     615 C          197.8492    74.3247    55.0032 C             1 RES     
     616 H          189.8247    78.7353    51.7915 H             1 RES     
     617 H          196.2116    67.4865    56.9458 H             1 RES     
     618 C          197.6541    71.4508    55.9269 C             1 RES     
     619 C          200.4790    75.0714    54.0932 C             1 RES     
     620 C          157.8041    80.9607    53.1083 C             1 RES     
     621 H          190.1021    77.0754    51.3215 H             1 RES     
     622 C          195.2425    67.7886    56.6075 C             1 RES     
     623 N          201.3252    69.0516    53.0154 N             1 RES     
     624 H          189.7427    77.4635    52.9869 H             1 RES     
     625 H          161.7414    78.6570    53.7003 H             1 RES     
     626 H          196.3096    77.0158    53.7457 H             1 RES     
     627 C          202.6256    78.3829    54.7271 C             1 RES     
     628 H          200.9645    74.2216    53.3115 H             1 RES     
     629 H          200.9291    75.2424    54.2420 H             1 RES     
     630 H          202.6061    78.9920    55.6066 H             1 RES     
     631 H          203.6333    78.0895    54.5187 H             1 RES     
     632 H          162.5000    77.0483    53.8655 H             1 RES     
     633 H          190.7812    70.8916    51.0436 H             1 RES     
     634 H          158.1883    80.9756    54.6884 H             1 RES     
     635 H          158.2372    81.2226    51.6986 H             1 RES     
     636 C          216.4908    65.7546    50.8179 C             1 RES     
     637 C          218.5723    66.7221    49.9900 C             1 RES     
     638 C          223.0203    65.6785    49.0061 C             1 RES     
     639 C          217.1924    62.0951    51.2433 C             1 RES     
     640 C          216.0596    63.8068    51.2171 C             1 RES     
     641 C          220.0939    64.9547    49.9235 C             1 RES     
     642 H          218.8695    67.7141    49.7209 H             1 RES     
     643 H          215.8135    67.0643    50.6588 H             1 RES     
     644 C          219.5186    62.8985    50.4703 C             1 RES     
     645 H          216.8899    61.1049    51.5135 H             1 RES     
     646 O          232.8576    57.8750    49.7170 O             1 RES     
     647 H          220.2855    62.1548    50.4086 H             1 RES     
     648 C          225.2252    63.8375    48.8363 C             1 RES     
     649 H          222.9451    66.1007    48.0259 H             1 RES     
     650 H          223.3778    66.3234    49.7815 H             1 RES     
     651 C          227.4752    64.7259    48.0029 C             1 RES     
     652 C          228.7604    60.1513    49.4910 C             1 RES     
     653 C          224.3771    61.0191    49.5372 C             1 RES     
     654 C          229.2022    62.9668    47.8360 C             1 RES     
     655 C          226.0752    59.4613    49.2588 C             1 RES     
     656 H          225.9448    58.2154    49.3811 H             1 RES     
     657 H          227.7476    65.7264    47.7388 H             1 RES     
     658 H          229.8198    62.3617    47.3642 H             1 RES     
     659 H          223.3636    60.8548    49.8384 H             1 RES     
     660 O          214.2617    63.6852    52.5734 O             1 RES     
     661 C          213.0797    65.5708    53.4076 C             1 RES     
     662 C          210.2294    65.4067    54.0706 C             1 RES     
     663 H          213.4791    66.2585    54.6432 H             1 RES     
     664 H          212.3278    65.7463    52.0479 H             1 RES     
     665 C          237.7638    62.6338    49.8141 C             1 RES     
     666 O          207.9626    67.0538    52.4723 O             1 RES     
     667 H          241.3725    63.0450    49.3443 H             1 RES     
     668 H          241.0628    63.5642    50.8729 H             1 RES     
     669 H          241.7235    52.5677    55.4368 H             1 RES     
     670 C          234.0546    58.6432    49.0358 C             1 RES     
     671 C          236.4268    56.6559    49.4353 C             1 RES     
     672 H          233.4242    59.8299    49.4988 H             1 RES     
     673 O          234.0327    58.8591    47.3237 O             1 RES     
     674 H          233.8133    59.1612    46.2029 H             1 RES     
     675 N          237.9585    57.3614    48.7550 N             1 RES     
     676 H          236.2647    56.5198    50.6083 H             1 RES     
     677 H          236.3033    55.3843    48.0503 H             1 RES     
     678 C          240.5822    57.0404    52.5579 C             1 RES     
     679 H          248.0501    51.9142    50.9186 H             1 RES     
     680 C          240.9839    59.2255    51.6742 C             1 RES     
     681 H          242.2135    51.8295    53.5704 H             1 RES     
     682 C          242.6004    55.1695    53.5624 C             1 RES     
     683 C          243.6399    60.5543    51.5263 C             1 RES     
     684 H          249.8975    63.0629    50.8732 H             1 RES     
     685 C          240.7617    62.7996    50.1878 C             1 RES     
     686 C          245.2973    58.8167    52.4786 C             1 RES     
     687 H          237.3935    63.5796    49.4777 H             1 RES     
     688 H          243.3456    52.2149    54.8915 H             1 RES     
     689 C          244.9747    56.0148    53.5721 C             1 RES     
     690 C          247.9105    59.3371    51.3824 C             1 RES     
     691 C          205.7150    68.0080    52.4561 C             1 RES     
     692 H          237.5360    61.8825    49.0871 H             1 RES     
     693 C          242.3794    52.5630    54.5914 C             1 RES     
     694 N          248.3057    53.2259    50.5994 N             1 RES     
     695 H          237.3018    62.3806    50.7455 H             1 RES     
     696 H          209.5257    65.4804    52.9557 H             1 RES     
     697 H          243.8604    61.5351    51.1598 H             1 RES     
     698 C          250.2978    62.5262    51.7079 C             1 RES     
     699 H          248.2936    58.4168    50.6238 H             1 RES     
     700 H          248.3787    59.4852    51.4959 H             1 RES     
     701 H          250.3695    63.1806    52.5515 H             1 RES     
     702 H          251.2706    62.1556    51.4603 H             1 RES     
     703 H          210.1887    63.8354    53.1684 H             1 RES     
     704 H          237.8018    55.6611    49.1200 H             1 RES     
     705 H          206.1928    68.0802    54.0090 H             1 RES     
     706 H          206.0793    68.1661    51.0119 H             1 RES     
     707 H           10.0000   101.3364    41.1579 H             1 RES     
     708 H          249.3339    52.8980    50.4203 H             1 RES     
     709 C           22.1685   102.1197    72.0099 C             1 RES     
     710 C           24.0175   103.7098    71.9257 C             1 RES     
     711 C           28.6829   103.9847    71.9258 C             1 RES     
     712 C           23.7662    98.7277    71.9258 C             1 RES     
     713 C           22.2287   100.0878    71.9258 C             1 RES     
     714 C           25.9542   102.4088    71.9257 C             1 RES     
     715 H           24.0727   104.7783    71.9257 H             1 RES     
     716 H           21.1975   103.2375    71.9258 H             1 RES     
     717 C           25.8802   100.2060    71.9257 C             1 RES     
     718 H           23.7053    97.6594    71.9258 H             1 RES     
     719 O           39.9680    98.7141    73.6693 O             1 RES     
     720 H           26.8208    99.6958    71.9257 H             1 RES     
     721 C           31.3027   102.7962    71.9871 C             1 RES     
     722 H           28.6871   104.6024    71.0522 H             1 RES     
     723 H           28.6863   104.4875    72.8703 H             1 RES     
     724 C           33.3332   104.3518    71.9258 C             1 RES     
     725 C           35.5260    99.9742    72.8325 C             1 RES     
     726 C           31.1549    99.7749    71.9258 C             1 RES     
     727 C           35.4804   103.1300    71.8839 C             1 RES     
     728 C           33.2406    98.7633    71.8072 C             1 RES     
     729 H           33.4419    97.5292    71.6638 H             1 RES     
     730 H           33.3618   105.4214    71.9258 H             1 RES     
     731 H           36.3227   102.8153    71.4817 H             1 RES     
     732 H           30.1889    99.3146    71.9258 H             1 RES     
     733 O           20.3061    99.2327    72.7378 O             1 RES     
     734 C           18.5046   100.5376    73.5747 C             1 RES     
     735 C           15.7411    99.5683    73.4540 C             1 RES     
     736 H           18.4449   100.9791    74.9749 H             1 RES     
     737 H           18.0163   100.8589    72.1244 H             1 RES     
     738 C           43.2311   104.3036    75.8682 C             1 RES     
     739 O           13.4650   100.9870    71.6616 O             1 RES     
     740 H           46.6004   105.6333    76.4092 H             1 RES     
     741 H           45.8637   105.6824    77.8779 H             1 RES     
     742 H           48.6579    94.3635    80.3809 H             1 RES     
     743 C           41.0125    99.8777    73.4645 C             1 RES     
     744 C           43.7184    98.4521    74.0824 C             1 RES     
     745 H           39.9975   100.7400    73.9609 H             1 RES     
     746 O           41.2683   100.4900    71.8713 O             1 RES     
     747 H           41.1981   100.9952    70.8058 H             1 RES     
     748 N           45.0948    99.6333    73.9517 N             1 RES     
     749 H           43.3733    98.0032    75.1313 H             1 RES     
     750 H           44.2298    97.5596    72.5038 H             1 RES     
     751 C           46.9024    99.0141    78.1705 C             1 RES     
     752 H           55.6751    96.2916    77.5687 H             1 RES     
     753 C           46.8435   101.3800    77.8299 C             1 RES     
     754 H           49.6916    94.2310    78.5970 H             1 RES     
     755 C           49.1241    97.4708    79.2950 C             1 RES     
     756 C           48.9978   103.2783    78.6029 C             1 RES     
     757 H           54.3070   107.2379    80.0213 H             1 RES     
     758 C           45.9289   105.0579    77.0116 C             1 RES     
     759 C           50.8535   101.7905    79.6108 C             1 RES     
     760 H           42.6851   105.1916    75.6270 H             1 RES     
     761 H           50.3882    94.5350    80.2088 H             1 RES     
     762 C           51.1177    98.8105    80.0584 C             1 RES     
     763 C           53.3798   103.1459    79.3247 C             1 RES     
     764 C           11.0893   101.3746    71.2515 C             1 RES     
     765 H           43.3698   103.7187    74.9831 H             1 RES     
     766 C           49.4419    94.7139    79.7426 C             1 RES     
     767 N           55.6118    97.6641    77.5687 N             1 RES     
     768 H           42.6844   103.7338    76.5903 H             1 RES     
     769 H           15.2785    99.7456    72.2300 H             1 RES     
     770 H           49.0032   104.3422    78.4888 H             1 RES     
     771 C           54.6689   106.6221    80.8180 C             1 RES     
     772 H           54.1460   102.5495    78.5333 H             1 RES     
     773 H           53.7561   103.3656    79.5779 H             1 RES     
     774 H           54.3877   107.0517    81.7568 H             1 RES     
     775 H           55.7354   106.5558    80.7613 H             1 RES     
     776 H           16.3191    98.2955    72.3005 H             1 RES     
     777 H           11.2128   101.1771    72.8610 H             1 RES     
     778 H           11.6716   101.9562    70.0000 H             1 RES     
     779 C           71.2846    97.5812    77.7885 C             1 RES     
     780 C           73.2229    99.0374    77.5117 C             1 RES     
     781 C           77.8881    98.9993    77.2354 C             1 RES     
     782 C           72.6550    94.0902    77.8062 C             1 RES     
     783 C           71.2101    95.5482    77.8157 C             1 RES     
     784 C           75.0693    97.6116    77.4766 C             1 RES     
     785 H           73.3461   100.0984    77.4485 H             1 RES     
     786 H           70.3836    98.7555    77.6961 H             1 RES     
     787 C           74.8552    95.4217    77.6047 C             1 RES     
     788 H           72.5262    93.0298    77.8697 H             1 RES     
     789 O           88.8980    93.0844    78.6388 O             1 RES     
     790 H           75.7597    94.8505    77.5808 H             1 RES     
     791 C           80.4258    97.6430    77.2168 C             1 RES     
     792 H           77.8797    99.5686    76.3296 H             1 RES     
     793 H           77.9797    99.5496    78.1484 H             1 RES     
     794 C           82.5441    99.0540    76.9546 C             1 RES     
     795 C           84.5034    94.5931    77.9822 C             1 RES     
     796 C           80.0823    94.6393    77.3340 C             1 RES     
     797 C           84.6027    97.6907    76.8615 C             1 RES     
     798 C           82.0885    93.4857    77.1560 C             1 RES     
     799 H           82.2019    92.2350    77.0713 H             1 RES     
     800 H           82.6408   100.1178    76.8929 H             1 RES     
     801 H           85.3978    97.2997    76.4312 H             1 RES     
     802 H           79.0907    94.2453    77.4139 H             1 RES     
     803 O           69.2886    94.8675    78.7808 O             1 RES     
     804 C           67.6269    96.3321    79.6424 C             1 RES     
     805 C           64.8050    95.5448    79.7311 C             1 RES     
     806 H           67.6789    96.8495    81.0166 H             1 RES     
     807 H           67.0747    96.6087    78.2059 H             1 RES     
     808 C           92.6358    98.5507    80.3337 C             1 RES     
     809 O           62.5214    97.0165    77.9919 O             1 RES     
     810 H           96.1092    99.6786    80.6097 H             1 RES     
     811 H           95.4658    99.8539    82.1123 H             1 RES     
     812 H           97.6767    88.5205    85.0880 H             1 RES     
     813 C           90.0005    94.1631    78.3107 C             1 RES     
     814 C           92.6420    92.5941    78.8555 C             1 RES     
     815 H           89.0738    95.1163    78.8138 H             1 RES     
     816 O           90.1995    94.6725    76.6738 O             1 RES     
     817 H           90.0984    95.1246    75.5871 H             1 RES     
     818 N           94.0806    93.6721    78.5818 N             1 RES     
     819 H           92.3320    92.2250    79.9457 H             1 RES     
     820 H           93.0006    91.5878    77.3035 H             1 RES     
     821 C           96.0929    93.1557    82.7210 C             1 RES     
     822 H          104.6228    89.8246    81.7837 H             1 RES     
     823 C           96.1647    95.4991    82.2517 C             1 RES     
     824 H           98.5919    88.2257    83.2593 H             1 RES     
     825 C           98.2746    91.5283    83.8046 C             1 RES     
     826 C           98.4778    97.2869    82.7949 C             1 RES     
     827 H          104.1036   100.9515    83.6891 H             1 RES     
     828 C           95.4394    99.1819    81.2802 C             1 RES     
     829 C          100.2916    95.7333    83.7796 C             1 RES     
     830 H           92.1341    99.4594    80.0738 H             1 RES     
     831 H           99.4011    88.5666    84.8100 H             1 RES     
     832 C          100.3914    92.7699    84.3787 C             1 RES     
     833 C          102.8777    96.8998    83.2768 C             1 RES     
     834 C           60.1550    97.5401    77.6941 C             1 RES     
     835 H           92.6840    97.9122    79.4766 H             1 RES     
     836 C           98.4421    88.7837    84.3881 C             1 RES     
     837 N          104.6472    91.1963    81.7100 N             1 RES     
     838 H           92.0978    98.0575    81.1162 H             1 RES     
     839 H           64.2826    95.6882    78.5269 H             1 RES     
     840 H           98.5443    98.3406    82.6210 H             1 RES     
     841 C          104.4723   100.3555    84.4977 C             1 RES     
     842 H          103.5558    96.2127    82.4786 H             1 RES     
     843 H          103.2816    97.1068    83.4958 H             1 RES     
     844 H          104.2754   100.8517    85.4251 H             1 RES     
     845 H          105.5271   100.2152    84.3853 H             1 RES     
     846 H           65.2310    94.1774    78.6206 H             1 RES     
     847 H           60.3612    97.4196    79.3028 H             1 RES     
     848 H           60.6977    98.0150    76.3813 H             1 RES     
     849 C          120.2681    90.0768    81.0572 C             1 RES     
     850 C          122.2754    91.3836    80.5909 C             1 RES     
     851 C          126.9040    91.0190    80.0566 C             1 RES     
     852 C          121.4118    86.5077    81.1945 C             1 RES     
     853 C          120.0659    88.0576    81.2028 C             1 RES     
     854 C          124.0218    89.8376    80.5328 C             1 RES     
     855 H          122.4619    92.4291    80.4613 H             1 RES     
     856 H          119.4399    91.3023    80.9494 H             1 RES     
     857 C          123.6765    87.6767    80.7957 C             1 RES     
     858 H          121.2197    85.4632    81.3247 H             1 RES     
     859 O          137.5783    84.4627    81.1726 O             1 RES     
     860 H          124.5397    87.0457    80.7534 H             1 RES     
     861 C          129.3444    89.4969    79.9725 C             1 RES     
     862 H          126.8780    91.5393    79.1221 H             1 RES     
     863 H          127.0846    91.6091    80.9307 H             1 RES     
     864 C          131.5290    90.7473    79.5133 C             1 RES     
     865 C          133.2576    86.2255    80.6789 C             1 RES     
     866 C          128.8177    86.5333    80.2775 C             1 RES     
     867 C          133.4873    89.2464    79.3820 C             1 RES     
     868 C          130.7322    85.2402    80.0528 C             1 RES     
     869 H          130.7603    83.9821    80.0324 H             1 RES     
     870 H          131.6894    91.7975    79.3864 H             1 RES     
     871 H          134.2289    88.7810    78.9305 H             1 RES     
     872 H          127.8095    86.2112    80.4348 H             1 RES     
     873 O          118.1657    87.5585    82.3106 O             1 RES     
     874 C          116.6550    89.1742    83.1800 C             1 RES     
     875 C          113.7989    88.5832    83.4706 C             1 RES     
     876 H          116.8215    89.7584    84.5179 H             1 RES     
     877 H          116.0371    89.4114    81.7634 H             1 RES     
     878 C          141.7512    89.7482    82.3456 C             1 RES     
     879 O          111.5143    90.1111    81.7818 O             1 RES     
     880 H          145.2997    90.6541    82.3630 H             1 RES     
     881 H          144.7593    90.9507    83.8869 H             1 RES     
     882 H          146.4164    79.6666    87.3672 H             1 RES     
     883 C          138.7259    85.4466    80.7232 C             1 RES     
     884 C          141.2897    83.7351    81.2069 C             1 RES     
     885 H          137.8935    86.4846    81.2229 H             1 RES     
     886 O          138.8593    85.8548    79.0516 O             1 RES     
     887 H          138.7227    86.2551    77.9486 H             1 RES     
     888 N          142.7753    84.6986    80.7929 N             1 RES     
     889 H          141.0222    83.4453    82.3317 H             1 RES     
     890 H          141.4905    82.6270    79.6963 H             1 RES     
     891 C          144.9932    84.2667    84.8356 C             1 RES     
     892 H          153.2225    80.3279    83.6115 H             1 RES     
     893 C          145.1863    86.5721    84.2318 C             1 RES     
     894 H          147.2005    79.2156    85.5098 H             1 RES     
     895 C          147.1274    82.5562    85.8852 C             1 RES     
     896 C          147.6369    88.2273    84.5434 C             1 RES     
     897 H          153.5280    91.5492    84.9139 H             1 RES     
     898 C          144.6407    90.2391    83.0967 C             1 RES     
     899 C          149.4032    86.6097    85.5109 C             1 RES     
     900 H          141.2939    90.6735    82.0634 H             1 RES     
     901 H          148.1206    79.5826    86.9911 H             1 RES     
     902 C          149.3495    83.6818    86.2692 C             1 RES     
     903 C          152.0239    87.5725    84.7994 C             1 RES     
     904 C          109.1727    90.7755    81.5879 C             1 RES     
     905 H          141.7075    89.0638    81.5243 H             1 RES     
     906 C          147.1540    79.8409    86.6120 C             1 RES     
     907 N          153.3299    81.6892    83.4595 N             1 RES     
     908 H          141.2304    89.3338    83.1834 H             1 RES     
     909 H          113.2161    88.6978    82.2913 H             1 RES     
     910 H          147.7598    89.2636    84.3070 H             1 RES     
     911 C          153.9054    90.9732    85.7328 C             1 RES     
     912 H          152.6082    86.8007    84.0045 H             1 RES     
     913 H          152.4525    87.7633    84.9835 H             1 RES     
     914 H          153.7961    91.5294    86.6404 H             1 RES     
     915 H          154.9406    90.7569    85.5696 H             1 RES     
     916 H          114.0701    87.1340    82.4167 H             1 RES     
     917 H          142.8133    82.9613    80.9631 H             1 RES     
     918 H          109.4661    90.7260    83.1867 H             1 RES     
     919 H          109.6655    91.1434    80.2221 H             1 RES     
     920 C          168.7811    79.4945    81.9980 C             1 RES     
     921 C          170.8364    80.6378    81.3474 C             1 RES     
     922 C          175.3922    79.9368    80.5764 C             1 RES     
     923 C          169.7011    75.8690    82.2718 C             1 RES     
     924 C          168.4596    77.5038    82.2681 C             1 RES     
     925 C          172.4741    78.9775    81.2788 C             1 RES     
     926 H          171.0811    81.6602    81.1489 H             1 RES     
     927 H          168.0278    80.7653    81.8679 H             1 RES     
     928 C          172.0080    76.8613    81.6817 C             1 RES     
     929 H          169.4509    74.8479    82.4711 H             1 RES     
     930 O          185.6744    72.7488    81.4608 O             1 RES     
     931 H          172.8251    76.1727    81.6268 H             1 RES     
     932 C          177.7214    78.2526    80.4417 C             1 RES     
     933 H          175.3439    80.4079    79.6170 H             1 RES     
     934 H          175.6618    80.5586    81.4044 H             1 RES     
     935 C          179.9500    79.3282    79.7914 C             1 RES     
     936 C          181.4531    74.7683    81.1111 C             1 RES     
     937 C          177.0259    75.3509    80.9420 C             1 RES     
     938 C          181.7974    77.6949    79.6355 C             1 RES     
     939 C          178.8373    73.9227    80.6837 C             1 RES     
     940 H          178.7839    72.6661    80.7325 H             1 RES     
     941 H          180.1692    80.3572    79.5969 H             1 RES     
     942 H          182.4796    77.1579    79.1701 H             1 RES     
     943 H          176.0103    75.1057    81.1733 H             1 RES     
     944 O          166.6008    77.1917    83.5068 O             1 RES     
     945 C          165.2506    78.9482    84.3670 C             1 RES     
     946 C          162.3849    78.5657    84.8497 C             1 RES     
     947 H          165.5333    79.5894    85.6585 H             1 RES     
     948 H          164.5658    79.1516    82.9760 H             1 RES     
     949 C          190.2381    77.7976    82.0992 C             1 RES     
     950 O          160.1060    80.1522    83.2080 O             1 RES     
     951 H          193.8318    78.4638    81.8671 H             1 RES     
     952 H          193.4031    78.8754    83.3998 H             1 RES     
     953 H          194.5416    67.7040    87.4114 H             1 RES     
     954 C          186.8535    73.6287    80.8932 C             1 RES     
     955 C          189.3273    71.7774    81.3283 C             1 RES     
     956 H          186.1202    74.7449    81.3795 H             1 RES     
     957 O          186.9130    73.9389    79.1965 O             1 RES     
     958 H          186.7369    74.2889    78.0821 H             1 RES     
     959 N          190.8440    72.6162    80.7783 N             1 RES     
     960 H          189.1092    71.5655    82.4808 H             1 RES     
     961 H          189.3668    70.5805    79.8736 H             1 RES     
     962 C          193.2665    72.2497    84.7085 C             1 RES     
     963 H          201.1405    67.7104    83.2496 H             1 RES     
     964 C          193.5698    74.5022    83.9661 C             1 RES     
     965 H          195.1834    67.1047    85.5413 H             1 RES     
     966 C          195.3459    70.4578    85.7317 C             1 RES     
     967 C          196.1351    76.0039    84.0465 C             1 RES     
     968 H          202.2377    78.9391    83.8994 H             1 RES     
     969 C          193.1925    78.1329    82.6588 C             1 RES     
     970 C          197.8492    74.3247    85.0032 C             1 RES     
     971 H          189.8247    78.7353    81.7915 H             1 RES     
     972 H          196.2116    67.4865    86.9458 H             1 RES     
     973 C          197.6541    71.4508    85.9269 C             1 RES     
     974 C          200.4790    75.0714    84.0932 C             1 RES     
     975 C          157.8041    80.9607    83.1083 C             1 RES     
     976 H          190.1021    77.0754    81.3215 H             1 RES     
     977 C          195.2425    67.7886    86.6075 C             1 RES     
     978 N          201.3252    69.0516    83.0154 N             1 RES     
     979 H          189.7427    77.4635    82.9869 H             1 RES     
     980 H          161.7414    78.6570    83.7003 H             1 RES     
     981 H          196.3096    77.0158    83.7457 H             1 RES     
     982 C          202.6256    78.3829    84.7271 C             1 RES     
     983 H          200.9645    74.2216    83.3115 H             1 RES     
     984 H          200.9291    75.2424    84.2420 H             1 RES     
     985 H          202.6061    78.9920    85.6066 H             1 RES     
     986 H          203.6333    78.0895    84.5187 H             1 RES     
     987 H          162.5000    77.0483    83.8655 H             1 RES     
     988 H          190.7812    70.8916    81.0436 H             1 RES     
     989 H          158.1883    80.9756    84.6884 H             1 RES     
     990 H          158.2372    81.2226    81.6986 H             1 RES     
     991 C          216.4908    65.7546    80.8179 C             1 RES     
     992 C          218.5723    66.7221    79.9900 C             1 RES     
     993 C          223.0203    65.6785    79.0061 C             1 RES     
     994 C          217.1924    62.0951    81.2433 C             1 RES     
     995 C          216.0596    63.8068    81.2171 C             1 RES     
     996 C          220.0939    64.9547    79.9235 C             1 RES     
     997 H          218.8695    67.7141    79.7209 H             1 RES     
     998 H          215.8135    67.0643    80.6588 H             1 RES     
     999 C          219.5186    62.8985    80.4703 C             1 RES     
    1000 H          216.8899    61.1049    81.5135 H             1 RES     
    1001 O          232.8576    57.8750    79.7170 O             1 RES     
    1002 H          220.2855    62.1548    80.4086 H             1 RES     
    1003 C          225.2252    63.8375    78.8363 C             1 RES     
    1004 H          222.9451    66.1007    78.0259 H             1 RES     
    1005 H          223.3778    66.3234    79.7815 H             1 RES     
    1006 C          227.4752    64.7259    78.0029 C             1 RES     
    1007 C          228.7604    60.1513    79.4910 C             1 RES     
    1008 C          224.3771    61.0191    79.5372 C             1 RES     
    1009 C          229.2022    62.9668    77.8360 C             1 RES     
    1010 C          226.0752    59.4613    79.2588 C             1 RES     
    1011 H          225.9448    58.2154    79.3811 H             1 RES     
    1012 H          227.7476    65.7264    77.7388 H             1 RES     
    1013 H          229.8198    62.3617    77.3642 H             1 RES     
    1014 H          223.3636    60.8548    79.8384 H             1 RES     
    1015 O          214.2617    63.6852    82.5734 O             1 RES     
    1016 C          213.0797    65.5708    83.4076 C             1 RES     
    1017 C          210.2294    65.4067    84.0706 C             1 RES     
    1018 H          213.4791    66.2585    84.6432 H             1 RES     
    1019 H          212.3278    65.7463    82.0479 H             1 RES     
    1020 C          237.7638    62.6338    79.8141 C             1 RES     
    1021 O          207.9626    67.0538    82.4723 O             1 RES     
    1022 H          241.3725    63.0450    79.3443 H             1 RES     
    1023 H          241.0628    63.5642    80.8729 H             1 RES     
    1024 H          241.7235    52.5677    85.4368 H             1 RES     
    1025 C          234.0546    58.6432    79.0358 C             1 RES     
    1026 C          236.4268    56.6559    79.4353 C             1 RES     
    1027 H          233.4242    59.8299    79.4988 H             1 RES     
    1028 O          234.0327    58.8591    77.3237 O             1 RES     
    1029 H          233.8133    59.1612    76.2029 H             1 RES     
    1030 N          237.9585    57.3614    78.7550 N             1 RES     
    1031 H          236.2647    56.5198    80.6083 H             1 RES     
    1032 H          236.3033    55.3843    78.0503 H             1 RES     
    1033 C          240.5822    57.0404    82.5579 C             1 RES     
    1034 H          248.0501    51.9142    80.9186 H             1 RES     
    1035 C          240.9839    59.2255    81.6742 C             1 RES     
    1036 H          242.2135    51.8295    83.5704 H             1 RES     
    1037 C          242.6004    55.1695    83.5624 C             1 RES     
    1038 C          243.6399    60.5543    81.5263 C             1 RES     
    1039 H          249.8975    63.0629    80.8732 H             1 RES     
    1040 C          240.7617    62.7996    80.1878 C             1 RES     
    1041 C          245.2973    58.8167    82.4786 C             1 RES     
    1042 H          237.3935    63.5796    79.4777 H             1 RES     
    1043 H          243.3456    52.2149    84.8915 H             1 RES     
    1044 C          244.9747    56.0148    83.5721 C             1 RES     
    1045 C          247.9105    59.3371    81.3824 C             1 RES     
    1046 C          205.7150    68.0080    82.4561 C             1 RES     
    1047 H          237.5360    61.8825    79.0871 H             1 RES     
    1048 C          242.3794    52.5630    84.5914 C             1 RES     
    1049 N          248.3057    53.2259    80.5994 N             1 RES     
    1050 H          237.3018    62.3806    80.7455 H             1 RES     
    1051 H          209.5257    65.4804    82.9557 H             1 RES     
    1052 H          243.8604    61.5351    81.1598 H             1 RES     
    1053 C          250.2978    62.5262    81.7079 C             1 RES     
    1054 H          248.2936    58.4168    80.6238 H             1 RES     
    1055 H          248.3787    59.4852    81.4959 H             1 RES     
    1056 H          250.3695    63.1806    82.5515 H             1 RES     
    1057 H          251.2706    62.1556    81.4603 H             1 RES     
    1058 H          210.1887    63.8354    83.1684 H             1 RES     
    1059 H          237.8018    55.6611    79.1200 H             1 RES     
    1060 H          206.1928    68.0802    84.0090 H             1 RES     
    1061 H          206.0793    68.1661    81.0119 H             1 RES     
    1062 H           10.0000   101.3364    71.1579 H             1 RES     
    1063 H          249.3339    52.8980    80.4203 H             1 RES     
    1064 C           51.2908   102.7737    36.6816 C             1 RES     
    1065 C           50.8218   101.1279    34.9422 C             1 RES     
    1066 C           52.8900    98.3153    31.8352 C             1 RES     
    1067 C           55.0268   102.8496    37.0009 C             1 RES     
    1068 C           53.0847   103.3179    37.4724 C             1 RES     
    1069 C           52.9100   100.4076    34.1913 C             1 RES     
    1070 H           49.9206   100.7579    34.4999 H             1 RES     
    1071 H           49.8377   102.9248    36.9367 H             1 RES     
    1072 C           54.7876   101.1471    35.0777 C             1 RES     
    1073 H           55.9250   103.2228    37.4468 H             1 RES     
    1074 O           62.6239    96.1834    26.0914 O             1 RES     
    1075 H           55.6961   100.7588    34.6666 H             1 RES     
    1076 C           55.2194    97.2062    30.5611 C             1 RES     
    1077 H           52.3387    97.4646    32.1774 H             1 RES     
    1078 H           52.4727    98.8604    31.0144 H             1 RES     
    1079 C           54.8706    95.4823    28.7029 C             1 RES     
    1080 C           59.7762    96.2626    28.3565 C             1 RES     
    1081 C           57.7706    98.2017    31.8474 C             1 RES     
    1082 C           56.9933    94.5827    27.8141 C             1 RES     
    1083 C           59.6787    97.2142    30.9691 C             1 RES     
    1084 H           60.8479    97.3795    31.4047 H             1 RES     
    1085 H           53.9553    95.1275    28.2772 H             1 RES     
    1086 H           57.6756    93.8894    27.6590 H             1 RES     
    1087 H           57.6929    98.9116    32.6443 H             1 RES     
    1088 O           52.9240   105.3411    39.7455 O             1 RES     
    1089 C           51.1318   105.9797    40.4129 C             1 RES     
    1090 H           52.0821   108.0672    42.2660 H             1 RES     
    1091 H           48.6858   104.0833    40.3947 H             1 RES     
    1092 C           62.0530    95.1918    24.1571 C             1 RES     
    1093 H           59.5064    94.4769    24.2600 H             1 RES     
    1094 H           64.6070    94.1776    22.2317 H             1 RES     
    1095 O           60.1380    94.3519    23.5615 O             1 RES     
    1096 H           50.7485   106.5946    39.6255 H             1 RES     
    1097 C           51.4465   107.2276    42.4553 C             1 RES     
    1098 H           51.8984   106.5972    43.1924 H             1 RES     
    1099 O           48.8161   104.8384    39.8331 O             1 RES     
    1100 C           64.4325    95.1667    22.6005 C             1 RES     
    1101 H           61.0249    94.9660    23.9650 H             1 RES     
    1102 H           65.2591    95.4720    23.2075 H             1 RES     
    1103 C          196.8660    71.6424    40.0883 C             1 RES     
    1104 C          198.3631    71.7339    38.1635 C             1 RES     
    1105 C          201.5043    69.2266    35.7787 C             1 RES     
    1106 C          197.1449    68.1409    41.4024 C             1 RES     
    1107 C          196.4161    70.0560    41.2800 C             1 RES     
    1108 C          199.3682    69.6310    38.0596 C             1 RES     
    1109 H          198.6252    72.5038    37.4683 H             1 RES     
    1110 H          196.3999    73.0198    39.7968 H             1 RES     
    1111 C          198.8541    68.0208    39.4740 C             1 RES     
    1112 H          196.8791    67.3745    42.1003 H             1 RES     
    1113 O          208.5015    60.1057    36.1456 O             1 RES     
    1114 H          199.3679    67.0907    39.3474 H             1 RES     
    1115 C          203.0287    66.8300    35.3182 C             1 RES     
    1116 H          201.0084    69.4138    34.8493 H             1 RES     
    1117 H          202.2930    69.8982    36.0467 H             1 RES     
    1118 C          204.6550    66.7972    33.3432 C             1 RES     
    1119 C          205.8325    62.5206    35.6054 C             1 RES     
    1120 C          202.2489    64.6291    37.2423 C             1 RES     
    1121 C          205.7857    64.6181    33.0639 C             1 RES     
    1122 C          203.3281    62.6195    36.8131 C             1 RES     
    1123 H          203.0972    61.5312    37.4016 H             1 RES     
    1124 H          204.8997    67.5834    32.6598 H             1 RES     
    1125 H          205.9862    63.7659    32.6125 H             1 RES     
    1126 H          201.5133    64.8456    37.9887 H             1 RES     
    1127 O          194.3274    70.6158    43.4271 O             1 RES     
    1128 C          193.4440    72.4248    43.5384 C             1 RES     
    1129 H          191.9484    72.0191    46.0471 H             1 RES     
    1130 H          192.9158    74.0720    40.9719 H             1 RES     
    1131 C          210.2302    60.5363    34.7756 C             1 RES     
    1132 H          209.6681    62.6611    33.3006 H             1 RES     
    1133 H          212.4389    58.0398    34.3899 H             1 RES     
    1134 O          210.4438    62.1127    33.2936 O             1 RES     
    1135 H          194.2111    73.0842    43.8873 H             1 RES     
    1136 C          191.5905    72.3070    45.0807 C             1 RES     
    1137 H          190.8824    71.5842    44.7327 H             1 RES     
    1138 O          193.5533    74.2721    41.6471 O             1 RES     
    1139 C          212.1332    58.4920    35.3101 C             1 RES     
    1140 H          210.2386    61.4432    34.2080 H             1 RES     
    1141 H          211.6918    57.7504    35.9426 H             1 RES     
    1142 C           46.2372    98.7318    52.9908 C             1 RES     
    1143 C           44.3089   100.0488    53.6989 C             1 RES     
    1144 C           42.6413   102.5741    57.2603 C             1 RES     
    1145 C           48.7540    99.0870    55.7485 C             1 RES     
    1146 C           48.0316    98.4959    53.9203 C             1 RES     
    1147 C           44.8574   100.8619    55.8158 C             1 RES     
    1148 H           43.3552   100.2558    53.2604 H             1 RES     
    1149 H           45.5853    98.4714    51.6844 H             1 RES     
    1150 C           46.8114   100.4565    56.7514 C             1 RES     
    1151 H           49.7093    98.8771    56.1825 H             1 RES     
    1152 O           43.6734   104.8304    68.4910 O             1 RES     
    1153 H           46.9712   100.8716    57.7246 H             1 RES     
    1154 C           42.8595   103.7181    59.8915 C             1 RES     
    1155 H           42.4226   103.4046    56.6222 H             1 RES     
    1156 H           41.8489   101.8750    57.4282 H             1 RES     
    1157 C           40.8975   105.1068    60.7681 C             1 RES     
    1158 C           43.7287   104.7915    64.8520 C             1 RES     
    1159 C           45.5765   103.1882    61.1126 C             1 RES     
    1160 C           41.3277   106.0798    62.9982 C             1 RES     
    1161 C           45.8697   104.2272    63.1674 C             1 RES     
    1162 H           46.9434   104.2481    63.8238 H             1 RES     
    1163 H           39.9509   105.2998    60.3080 H             1 RES     
    1164 H           41.4954   106.8092    63.6385 H             1 RES     
    1165 H           46.2755   102.5983    60.5572 H             1 RES     
    1166 O           50.0618    96.8211    52.3843 O             1 RES     
    1167 C           49.6125    96.1065    50.5533 C             1 RES     
    1168 H           51.9984    94.4209    50.1523 H             1 RES     
    1169 H           47.7837    97.7189    48.6467 H             1 RES     
    1170 C           41.6488   105.4647    69.2323 C             1 RES     
    1171 H           40.0640   105.9220    67.1620 H             1 RES     
    1172 H           41.5134   106.4432    72.4391 H             1 RES     
    1173 O           39.8802   106.0077    68.0901 O             1 RES     
    1174 H           48.8790    95.3471    50.7271 H             1 RES     
    1175 C           51.6121    95.2096    49.5410 C             1 RES     
    1176 H           52.3452    95.9839    49.4525 H             1 RES     
    1177 O           47.5606    96.9072    49.0871 O             1 RES     
    1178 C           41.8711   105.5060    72.0668 C             1 RES     
    1179 H           40.8386   105.5534    68.5390 H             1 RES     
    1180 H           42.8962   105.3791    72.3461 H             1 RES     
    1181 C          100.0129    88.7828    64.8922 C             1 RES     
    1182 C           98.4923    88.3625    63.0305 C             1 RES     
    1183 C           94.4927    89.8180    61.1002 C             1 RES     
    1184 C           98.6361    91.8007    66.6420 C             1 RES     
    1185 C           99.9751    90.2940    66.2538 C             1 RES     
    1186 C           96.8116    89.9686    63.2284 C             1 RES     
    1187 H           98.4603    87.6256    62.2555 H             1 RES     
    1188 H          100.9054    87.6994    64.4136 H             1 RES     
    1189 C           96.8434    91.5019    64.8113 C             1 RES     
    1190 H           98.6729    92.5355    67.4190 H             1 RES     
    1191 O           84.8060    95.7607    62.8715 O             1 RES     
    1192 H           96.0288    92.1958    64.8215 H             1 RES     
    1193 C           92.1960    91.5486    61.0014 C             1 RES     
    1194 H           94.9463    89.9162    60.1362 H             1 RES     
    1195 H           94.0123    88.8858    61.3129 H             1 RES     
    1196 C           90.5074    91.2029    59.1103 C             1 RES     
    1197 C           88.0972    94.5234    61.9315 C             1 RES     
    1198 C           92.3107    93.6727    63.1528 C             1 RES     
    1199 C           88.6687    92.8530    59.1487 C             1 RES     
    1200 C           90.5672    95.1991    63.0194 C             1 RES     
    1201 H           90.4502    96.2317    63.7295 H             1 RES     
    1202 H           90.4983    90.4558    58.3445 H             1 RES     
    1203 H           88.1478    93.6196    58.8151 H             1 RES     
    1204 H           93.1330    93.6569    63.8373 H             1 RES     
    1205 O          102.2932    90.2971    68.2317 O             1 RES     
    1206 C          103.7583    88.9200    68.0826 C             1 RES     
    1207 H          105.2148    89.5716    70.5623 H             1 RES     
    1208 H          104.6201    87.8418    65.3124 H             1 RES     
    1209 C           83.2320    94.8860    61.5267 C             1 RES     
    1210 H           84.3799    93.2641    59.7778 H             1 RES     
    1211 H           80.2676    96.4581    61.5409 H             1 RES     
    1212 O           83.4636    93.4980    59.8693 O             1 RES     
    1213 H          103.3003    87.9986    68.3761 H             1 RES     
    1214 C          105.5717    89.5309    69.5544 C             1 RES     
    1215 H          105.9526    90.4901    69.2719 H             1 RES     
    1216 O          104.1489    87.3596    65.9817 O             1 RES     
    1217 C           80.7849    96.0524    62.3850 C             1 RES     
    1218 H           83.4952    94.0990    60.8513 H             1 RES     
    1219 H           80.9890    96.8334    63.0873 H             1 RES     
@<TRIPOS>BOND
       1        1        2 1
       2        1        5 1
       3        1        8 1
       4        2        6 1
       5        2        7 1
       6        3        6 1
       7        3       13 1
       8        3       14 1
       9        3       15 1
      10        4        5 1
      11        4       10 1
      12        4        9 1
      13        5       25 1
      14        6        9 1
      15        9       12 1
      16       11       17 1
      17       11       35 1
      18       13       16 1
      19       13       18 1
      20       16       19 1
      21       16       22 1
      22       17       19 1
      23       17       20 1
      24       18       24 1
      25       18       20 1
      26       19       23 1
      27       20       21 1
      28       25       26 1
      29       26       27 1
      30       26       28 1
      31       26       29 1
      32       27       31 1
      33       27       60 1
      34       27       67 1
      35       30       49 1
      36       30       51 1
      37       30       56 1
      38       30       59 1
      39       31       55 1
      40       32       49 1
      41       33       49 1
      42       34       57 1
      43       35       36 1
      44       35       37 1
      45       35       38 1
      46       36       40 1
      47       36       41 1
      48       36       42 1
      49       38       39 1
      50       40       43 1
      51       40       68 1
      52       43       44 1
      53       43       46 1
      54       44       47 1
      55       44       49 1
      56       45       57 1
      57       46       53 1
      58       46       57 1
      59       47       50 1
      60       47       61 1
      61       48       62 1
      62       50       53 1
      63       50       54 1
      64       52       57 1
      65       53       58 1
      66       54       62 1
      67       54       63 1
      68       54       64 1
      69       55       69 1
      70       55       70 1
      71       55      354 1
      72       58      126 1
      73       58     1097 1
      74       62       66 1
      75       62       65 1
      76       71       72 1
      77       71       75 1
      78       71       78 1
      79       72       76 1
      80       72       77 1
      81       73       76 1
      82       73       83 1
      83       73       84 1
      84       73       85 1
      85       74       75 1
      86       74       80 1
      87       74       79 1
      88       75       95 1
      89       76       79 1
      90       79       82 1
      91       81       87 1
      92       81      105 1
      93       83       86 1
      94       83       88 1
      95       86       89 1
      96       86       92 1
      97       87       89 1
      98       87       90 1
      99       88       94 1
     100       88       90 1
     101       89       93 1
     102       90       91 1
     103       95       96 1
     104       96       97 1
     105       96       98 1
     106       96       99 1
     107       97      101 1
     108       97      131 1
     109       97      138 1
     110      100      120 1
     111      100      122 1
     112      100      127 1
     113      100      130 1
     114      101      126 1
     115      102      120 1
     116      103      120 1
     117      104      128 1
     118      105      106 1
     119      105      107 1
     120      105      108 1
     121      106      110 1
     122      106      111 1
     123      106      112 1
     124      108      109 1
     125      110      113 1
     126      110      139 1
     127      113      115 1
     128      113      117 1
     129      114      129 1
     130      115      118 1
     131      115      120 1
     132      116      128 1
     133      117      124 1
     134      117      128 1
     135      118      121 1
     136      118      132 1
     137      119      133 1
     138      121      124 1
     139      121      125 1
     140      123      128 1
     141      124      129 1
     142      125      133 1
     143      125      134 1
     144      125      135 1
     145      126      140 1
     146      126      141 1
     147      129      197 1
     148      133      137 1
     149      133      136 1
     150      142      143 1
     151      142      146 1
     152      142      149 1
     153      143      147 1
     154      143      148 1
     155      144      147 1
     156      144      154 1
     157      144      155 1
     158      144      156 1
     159      145      146 1
     160      145      151 1
     161      145      150 1
     162      146      166 1
     163      147      150 1
     164      150      153 1
     165      152      158 1
     166      152      176 1
     167      154      157 1
     168      154      159 1
     169      157      160 1
     170      157      163 1
     171      158      160 1
     172      158      161 1
     173      159      165 1
     174      159      161 1
     175      160      164 1
     176      161      162 1
     177      166      167 1
     178      167      168 1
     179      167      169 1
     180      167      170 1
     181      168      172 1
     182      168      202 1
     183      168      209 1
     184      171      191 1
     185      171      193 1
     186      171      198 1
     187      171      201 1
     188      172      197 1
     189      173      191 1
     190      174      191 1
     191      175      199 1
     192      176      177 1
     193      176      178 1
     194      176      179 1
     195      177      181 1
     196      177      182 1
     197      177      183 1
     198      179      180 1
     199      181      184 1
     200      181      210 1
     201      184      186 1
     202      184      188 1
     203      185      200 1
     204      186      189 1
     205      186      191 1
     206      187      199 1
     207      188      195 1
     208      188      199 1
     209      189      192 1
     210      189      203 1
     211      190      204 1
     212      192      195 1
     213      192      196 1
     214      194      199 1
     215      195      200 1
     216      196      204 1
     217      196      205 1
     218      196      206 1
     219      197      211 1
     220      197      212 1
     221      200      267 1
     222      204      208 1
     223      204      207 1
     224      213      214 1
     225      213      217 1
     226      213      220 1
     227      214      218 1
     228      214      219 1
     229      215      218 1
     230      215      225 1
     231      215      226 1
     232      215      227 1
     233      216      217 1
     234      216      222 1
     235      216      221 1
     236      217      237 1
     237      218      221 1
     238      221      224 1
     239      223      229 1
     240      223      247 1
     241      225      228 1
     242      225      230 1
     243      228      231 1
     244      228      234 1
     245      229      231 1
     246      229      232 1
     247      230      236 1
     248      230      232 1
     249      231      235 1
     250      232      233 1
     251      237      238 1
     252      238      239 1
     253      238      240 1
     254      238      241 1
     255      239      243 1
     256      239      272 1
     257      239      279 1
     258      242      261 1
     259      242      263 1
     260      242      268 1
     261      242      271 1
     262      243      267 1
     263      244      261 1
     264      245      261 1
     265      246      269 1
     266      247      248 1
     267      247      249 1
     268      247      250 1
     269      248      252 1
     270      248      253 1
     271      248      254 1
     272      250      251 1
     273      252      255 1
     274      252      280 1
     275      255      256 1
     276      255      258 1
     277      256      259 1
     278      256      261 1
     279      257      269 1
     280      258      265 1
     281      258      269 1
     282      259      262 1
     283      259      273 1
     284      260      274 1
     285      262      265 1
     286      262      266 1
     287      264      269 1
     288      265      270 1
     289      266      274 1
     290      266      275 1
     291      266      276 1
     292      267      281 1
     293      267      282 1
     294      270      338 1
     295      270     1136 1
     296      274      278 1
     297      274      277 1
     298      283      284 1
     299      283      287 1
     300      283      290 1
     301      284      288 1
     302      284      289 1
     303      285      288 1
     304      285      295 1
     305      285      296 1
     306      285      297 1
     307      286      287 1
     308      286      292 1
     309      286      291 1
     310      287      307 1
     311      288      291 1
     312      291      294 1
     313      293      299 1
     314      293      317 1
     315      295      298 1
     316      295      300 1
     317      298      301 1
     318      298      304 1
     319      299      301 1
     320      299      302 1
     321      300      306 1
     322      300      302 1
     323      301      305 1
     324      302      303 1
     325      307      308 1
     326      308      309 1
     327      308      310 1
     328      308      311 1
     329      309      313 1
     330      309      343 1
     331      309      350 1
     332      312      332 1
     333      312      334 1
     334      312      339 1
     335      312      342 1
     336      313      338 1
     337      314      332 1
     338      315      332 1
     339      316      340 1
     340      317      318 1
     341      317      319 1
     342      317      320 1
     343      318      322 1
     344      318      323 1
     345      318      324 1
     346      320      321 1
     347      322      325 1
     348      322      351 1
     349      325      327 1
     350      325      329 1
     351      326      341 1
     352      327      330 1
     353      327      332 1
     354      328      340 1
     355      329      336 1
     356      329      340 1
     357      330      333 1
     358      330      344 1
     359      331      345 1
     360      333      336 1
     361      333      337 1
     362      335      340 1
     363      336      341 1
     364      337      345 1
     365      337      346 1
     366      337      347 1
     367      338      352 1
     368      338      353 1
     369      341      355 1
     370      345      349 1
     371      345      348 1
     372      356      357 1
     373      356      360 1
     374      356      363 1
     375      357      361 1
     376      357      362 1
     377      358      361 1
     378      358      368 1
     379      358      369 1
     380      358      370 1
     381      359      360 1
     382      359      365 1
     383      359      364 1
     384      360      380 1
     385      361      364 1
     386      364      367 1
     387      366      372 1
     388      366      390 1
     389      368      371 1
     390      368      373 1
     391      371      374 1
     392      371      377 1
     393      372      374 1
     394      372      375 1
     395      373      379 1
     396      373      375 1
     397      374      378 1
     398      375      376 1
     399      380      381 1
     400      381      382 1
     401      381      383 1
     402      381      384 1
     403      382      386 1
     404      382      415 1
     405      382      422 1
     406      385      404 1
     407      385      406 1
     408      385      411 1
     409      385      414 1
     410      386      410 1
     411      387      404 1
     412      388      404 1
     413      389      412 1
     414      390      391 1
     415      390      392 1
     416      390      393 1
     417      391      395 1
     418      391      396 1
     419      391      397 1
     420      393      394 1
     421      395      398 1
     422      395     1175 1
     423      398      399 1
     424      398      401 1
     425      399      402 1
     426      399      404 1
     427      400      412 1
     428      401      408 1
     429      401      412 1
     430      402      405 1
     431      402      416 1
     432      403      417 1
     433      405      408 1
     434      405      409 1
     435      407      412 1
     436      408      413 1
     437      409      417 1
     438      409      418 1
     439      409      419 1
     440      410      423 1
     441      410      424 1
     442      410      707 1
     443      413      480 1
     444      413     1100 1
     445      417      421 1
     446      417      420 1
     447      425      426 1
     448      425      429 1
     449      425      432 1
     450      426      430 1
     451      426      431 1
     452      427      430 1
     453      427      437 1
     454      427      438 1
     455      427      439 1
     456      428      429 1
     457      428      434 1
     458      428      433 1
     459      429      449 1
     460      430      433 1
     461      433      436 1
     462      435      441 1
     463      435      459 1
     464      437      440 1
     465      437      442 1
     466      440      443 1
     467      440      446 1
     468      441      443 1
     469      441      444 1
     470      442      448 1
     471      442      444 1
     472      443      447 1
     473      444      445 1
     474      449      450 1
     475      450      451 1
     476      450      452 1
     477      450      453 1
     478      451      455 1
     479      451      485 1
     480      451      492 1
     481      454      474 1
     482      454      476 1
     483      454      481 1
     484      454      484 1
     485      455      480 1
     486      456      474 1
     487      457      474 1
     488      458      482 1
     489      459      460 1
     490      459      461 1
     491      459      462 1
     492      460      464 1
     493      460      465 1
     494      460      466 1
     495      462      463 1
     496      464      467 1
     497      464     1214 1
     498      467      469 1
     499      467      471 1
     500      468      483 1
     501      469      472 1
     502      469      474 1
     503      470      482 1
     504      471      478 1
     505      471      482 1
     506      472      475 1
     507      472      486 1
     508      473      487 1
     509      475      478 1
     510      475      479 1
     511      477      482 1
     512      478      483 1
     513      479      487 1
     514      479      488 1
     515      479      489 1
     516      480      493 1
     517      480      494 1
     518      483      550 1
     519      487      491 1
     520      487      490 1
     521      495      496 1
     522      495      499 1
     523      495      502 1
     524      496      500 1
     525      496      501 1
     526      497      500 1
     527      497      507 1
     528      497      508 1
     529      497      509 1
     530      498      499 1
     531      498      504 1
     532      498      503 1
     533      499      519 1
     534      500      503 1
     535      503      506 1
     536      505      511 1
     537      505      529 1
     538      507      510 1
     539      507      512 1
     540      510      513 1
     541      510      516 1
     542      511      513 1
     543      511      514 1
     544      512      518 1
     545      512      514 1
     546      513      517 1
     547      514      515 1
     548      519      520 1
     549      520      521 1
     550      520      522 1
     551      520      523 1
     552      521      525 1
     553      521      555 1
     554      521      562 1
     555      524      544 1
     556      524      546 1
     557      524      551 1
     558      524      554 1
     559      525      550 1
     560      526      544 1
     561      527      544 1
     562      528      552 1
     563      529      530 1
     564      529      531 1
     565      529      532 1
     566      530      534 1
     567      530      535 1
     568      530      536 1
     569      532      533 1
     570      534      537 1
     571      534      563 1
     572      537      539 1
     573      537      541 1
     574      538      553 1
     575      539      542 1
     576      539      544 1
     577      540      552 1
     578      541      548 1
     579      541      552 1
     580      542      545 1
     581      542      556 1
     582      543      557 1
     583      545      548 1
     584      545      549 1
     585      547      552 1
     586      548      553 1
     587      549      557 1
     588      549      558 1
     589      549      559 1
     590      550      564 1
     591      550      565 1
     592      553      620 1
     593      557      561 1
     594      557      560 1
     595      566      567 1
     596      566      570 1
     597      566      573 1
     598      567      571 1
     599      567      572 1
     600      568      571 1
     601      568      578 1
     602      568      579 1
     603      568      580 1
     604      569      570 1
     605      569      575 1
     606      569      574 1
     607      570      590 1
     608      571      574 1
     609      574      577 1
     610      576      582 1
     611      576      600 1
     612      578      581 1
     613      578      583 1
     614      581      584 1
     615      581      587 1
     616      582      584 1
     617      582      585 1
     618      583      589 1
     619      583      585 1
     620      584      588 1
     621      585      586 1
     622      590      591 1
     623      591      592 1
     624      591      593 1
     625      591      594 1
     626      592      596 1
     627      592      625 1
     628      592      632 1
     629      595      614 1
     630      595      616 1
     631      595      621 1
     632      595      624 1
     633      596      620 1
     634      597      614 1
     635      598      614 1
     636      599      622 1
     637      600      601 1
     638      600      602 1
     639      600      603 1
     640      601      605 1
     641      601      606 1
     642      601      607 1
     643      603      604 1
     644      605      608 1
     645      605      633 1
     646      608      609 1
     647      608      611 1
     648      609      612 1
     649      609      614 1
     650      610      622 1
     651      611      618 1
     652      611      622 1
     653      612      615 1
     654      612      626 1
     655      613      627 1
     656      615      618 1
     657      615      619 1
     658      617      622 1
     659      618      623 1
     660      619      627 1
     661      619      628 1
     662      619      629 1
     663      620      634 1
     664      620      635 1
     665      623      691 1
     666      623     1139 1
     667      627      631 1
     668      627      630 1
     669      636      637 1
     670      636      640 1
     671      636      643 1
     672      637      641 1
     673      637      642 1
     674      638      641 1
     675      638      648 1
     676      638      649 1
     677      638      650 1
     678      639      640 1
     679      639      645 1
     680      639      644 1
     681      640      660 1
     682      641      644 1
     683      644      647 1
     684      646      652 1
     685      646      670 1
     686      648      651 1
     687      648      653 1
     688      651      654 1
     689      651      657 1
     690      652      654 1
     691      652      655 1
     692      653      659 1
     693      653      655 1
     694      654      658 1
     695      655      656 1
     696      660      661 1
     697      661      662 1
     698      661      663 1
     699      661      664 1
     700      662      666 1
     701      662      696 1
     702      662      703 1
     703      665      685 1
     704      665      687 1
     705      665      692 1
     706      665      695 1
     707      666      691 1
     708      667      685 1
     709      668      685 1
     710      669      693 1
     711      670      671 1
     712      670      672 1
     713      670      673 1
     714      671      675 1
     715      671      676 1
     716      671      677 1
     717      673      674 1
     718      675      678 1
     719      675      704 1
     720      678      680 1
     721      678      682 1
     722      679      694 1
     723      680      683 1
     724      680      685 1
     725      681      693 1
     726      682      689 1
     727      682      693 1
     728      683      686 1
     729      683      697 1
     730      684      698 1
     731      686      689 1
     732      686      690 1
     733      688      693 1
     734      689      694 1
     735      690      698 1
     736      690      699 1
     737      690      700 1
     738      691      705 1
     739      691      706 1
     740      694      708 1
     741      698      702 1
     742      698      701 1
     743      709      710 1
     744      709      713 1
     745      709      716 1
     746      710      714 1
     747      710      715 1
     748      711      714 1
     749      711      721 1
     750      711      722 1
     751      711      723 1
     752      712      713 1
     753      712      718 1
     754      712      717 1
     755      713      733 1
     756      714      717 1
     757      717      720 1
     758      719      725 1
     759      719      743 1
     760      721      724 1
     761      721      726 1
     762      724      727 1
     763      724      730 1
     764      725      727 1
     765      725      728 1
     766      726      732 1
     767      726      728 1
     768      727      731 1
     769      728      729 1
     770      733      734 1
     771      734      735 1
     772      734      736 1
     773      734      737 1
     774      735      739 1
     775      735      769 1
     776      735      776 1
     777      738      758 1
     778      738      760 1
     779      738      765 1
     780      738      768 1
     781      739      764 1
     782      740      758 1
     783      741      758 1
     784      742      766 1
     785      743      744 1
     786      743      745 1
     787      743      746 1
     788      744      748 1
     789      744      749 1
     790      744      750 1
     791      746      747 1
     792      748      751 1
     793      748     1178 1
     794      751      753 1
     795      751      755 1
     796      752      767 1
     797      753      756 1
     798      753      758 1
     799      754      766 1
     800      755      762 1
     801      755      766 1
     802      756      759 1
     803      756      770 1
     804      757      771 1
     805      759      762 1
     806      759      763 1
     807      761      766 1
     808      762      767 1
     809      763      771 1
     810      763      772 1
     811      763      773 1
     812      764      777 1
     813      764      778 1
     814      764     1062 1
     815      767      834 1
     816      771      775 1
     817      771      774 1
     818      779      780 1
     819      779      783 1
     820      779      786 1
     821      780      784 1
     822      780      785 1
     823      781      784 1
     824      781      791 1
     825      781      792 1
     826      781      793 1
     827      782      783 1
     828      782      788 1
     829      782      787 1
     830      783      803 1
     831      784      787 1
     832      787      790 1
     833      789      795 1
     834      789      813 1
     835      791      794 1
     836      791      796 1
     837      794      797 1
     838      794      800 1
     839      795      797 1
     840      795      798 1
     841      796      802 1
     842      796      798 1
     843      797      801 1
     844      798      799 1
     845      803      804 1
     846      804      805 1
     847      804      806 1
     848      804      807 1
     849      805      809 1
     850      805      839 1
     851      805      846 1
     852      808      828 1
     853      808      830 1
     854      808      835 1
     855      808      838 1
     856      809      834 1
     857      810      828 1
     858      811      828 1
     859      812      836 1
     860      813      814 1
     861      813      815 1
     862      813      816 1
     863      814      818 1
     864      814      819 1
     865      814      820 1
     866      816      817 1
     867      818      821 1
     868      818     1217 1
     869      821      823 1
     870      821      825 1
     871      822      837 1
     872      823      826 1
     873      823      828 1
     874      824      836 1
     875      825      832 1
     876      825      836 1
     877      826      829 1
     878      826      840 1
     879      827      841 1
     880      829      832 1
     881      829      833 1
     882      831      836 1
     883      832      837 1
     884      833      841 1
     885      833      842 1
     886      833      843 1
     887      834      847 1
     888      834      848 1
     889      837      904 1
     890      841      845 1
     891      841      844 1
     892      849      850 1
     893      849      853 1
     894      849      856 1
     895      850      854 1
     896      850      855 1
     897      851      854 1
     898      851      861 1
     899      851      862 1
     900      851      863 1
     901      852      853 1
     902      852      858 1
     903      852      857 1
     904      853      873 1
     905      854      857 1
     906      857      860 1
     907      859      865 1
     908      859      883 1
     909      861      864 1
     910      861      866 1
     911      864      867 1
     912      864      870 1
     913      865      867 1
     914      865      868 1
     915      866      872 1
     916      866      868 1
     917      867      871 1
     918      868      869 1
     919      873      874 1
     920      874      875 1
     921      874      876 1
     922      874      877 1
     923      875      879 1
     924      875      909 1
     925      875      916 1
     926      878      898 1
     927      878      900 1
     928      878      905 1
     929      878      908 1
     930      879      904 1
     931      880      898 1
     932      881      898 1
     933      882      906 1
     934      883      884 1
     935      883      885 1
     936      883      886 1
     937      884      888 1
     938      884      889 1
     939      884      890 1
     940      886      887 1
     941      888      891 1
     942      888      917 1
     943      891      893 1
     944      891      895 1
     945      892      907 1
     946      893      896 1
     947      893      898 1
     948      894      906 1
     949      895      902 1
     950      895      906 1
     951      896      899 1
     952      896      910 1
     953      897      911 1
     954      899      902 1
     955      899      903 1
     956      901      906 1
     957      902      907 1
     958      903      911 1
     959      903      912 1
     960      903      913 1
     961      904      918 1
     962      904      919 1
     963      907      975 1
     964      911      915 1
     965      911      914 1
     966      920      921 1
     967      920      924 1
     968      920      927 1
     969      921      925 1
     970      921      926 1
     971      922      925 1
     972      922      932 1
     973      922      933 1
     974      922      934 1
     975      923      924 1
     976      923      929 1
     977      923      928 1
     978      924      944 1
     979      925      928 1
     980      928      931 1
     981      930      936 1
     982      930      954 1
     983      932      935 1
     984      932      937 1
     985      935      938 1
     986      935      941 1
     987      936      938 1
     988      936      939 1
     989      937      943 1
     990      937      939 1
     991      938      942 1
     992      939      940 1
     993      944      945 1
     994      945      946 1
     995      945      947 1
     996      945      948 1
     997      946      950 1
     998      946      980 1
     999      946      987 1
    1000      949      969 1
    1001      949      971 1
    1002      949      976 1
    1003      949      979 1
    1004      950      975 1
    1005      951      969 1
    1006      952      969 1
    1007      953      977 1
    1008      954      955 1
    1009      954      956 1
    1010      954      957 1
    1011      955      959 1
    1012      955      960 1
    1013      955      961 1
    1014      957      958 1
    1015      959      962 1
    1016      959      988 1
    1017      962      964 1
    1018      962      966 1
    1019      963      978 1
    1020      964      967 1
    1021      964      969 1
    1022      965      977 1
    1023      966      973 1
    1024      966      977 1
    1025      967      970 1
    1026      967      981 1
    1027      968      982 1
    1028      970      973 1
    1029      970      974 1
    1030      972      977 1
    1031      973      978 1
    1032      974      982 1
    1033      974      983 1
    1034      974      984 1
    1035      975      989 1
    1036      975      990 1
    1037      978     1046 1
    1038      982      986 1
    1039      982      985 1
    1040      991      992 1
    1041      991      995 1
    1042      991      998 1
    1043      992      996 1
    1044      992      997 1
    1045      993      996 1
    1046      993     1003 1
    1047      993     1004 1
    1048      993     1005 1
    1049      994      995 1
    1050      994     1000 1
    1051      994      999 1
    1052      995     1015 1
    1053      996      999 1
    1054      999     1002 1
    1055     1001     1007 1
    1056     1001     1025 1
    1057     1003     1006 1
    1058     1003     1008 1
    1059     1006     1009 1
    1060     1006     1012 1
    1061     1007     1009 1
    1062     1007     1010 1
    1063     1008     1014 1
    1064     1008     1010 1
    1065     1009     1013 1
    1066     1010     1011 1
    1067     1015     1016 1
    1068     1016     1017 1
    1069     1016     1018 1
    1070     1016     1019 1
    1071     1017     1021 1
    1072     1017     1051 1
    1073     1017     1058 1
    1074     1020     1040 1
    1075     1020     1042 1
    1076     1020     1047 1
    1077     1020     1050 1
    1078     1021     1046 1
    1079     1022     1040 1
    1080     1023     1040 1
    1081     1024     1048 1
    1082     1025     1026 1
    1083     1025     1027 1
    1084     1025     1028 1
    1085     1026     1030 1
    1086     1026     1031 1
    1087     1026     1032 1
    1088     1028     1029 1
    1089     1030     1033 1
    1090     1030     1059 1
    1091     1033     1035 1
    1092     1033     1037 1
    1093     1034     1049 1
    1094     1035     1038 1
    1095     1035     1040 1
    1096     1036     1048 1
    1097     1037     1044 1
    1098     1037     1048 1
    1099     1038     1041 1
    1100     1038     1052 1
    1101     1039     1053 1
    1102     1041     1044 1
    1103     1041     1045 1
    1104     1043     1048 1
    1105     1044     1049 1
    1106     1045     1053 1
    1107     1045     1054 1
    1108     1045     1055 1
    1109     1046     1060 1
    1110     1046     1061 1
    1111     1049     1063 1
    1112     1053     1057 1
    1113     1053     1056 1
    1114     1064     1065 1
    1115     1064     1068 1
    1116     1064     1071 1
    1117     1065     1069 1
    1118     1065     1070 1
    1119     1066     1069 1
    1120     1066     1076 1
    1121     1066     1077 1
    1122     1066     1078 1
    1123     1067     1068 1
    1124     1067     1073 1
    1125     1067     1072 1
    1126     1068     1088 1
    1127     1069     1072 1
    1128     1072     1075 1
    1129     1074     1080 1
    1130     1074     1092 1
    1131     1076     1079 1
    1132     1076     1081 1
    1133     1079     1082 1
    1134     1079     1085 1
    1135     1080     1082 1
    1136     1080     1083 1
    1137     1081     1087 1
    1138     1081     1083 1
    1139     1082     1086 1
    1140     1083     1084 1
    1141     1088     1089 1
    1142     1089     1096 1
    1143     1089     1097 1
    1144     1089     1099 1
    1145     1090     1097 1
    1146     1091     1099 1
    1147     1092     1095 1
    1148     1092     1100 1
    1149     1092     1101 1
    1150     1093     1095 1
    1151     1094     1100 1
    1152     1097     1098 1
    1153     1100     1102 1
    1154     1103     1104 1
    1155     1103     1107 1
    1156     1103     1110 1
    1157     1104     1108 1
    1158     1104     1109 1
    1159     1105     1108 1
    1160     1105     1115 1
    1161     1105     1116 1
    1162     1105     1117 1
    1163     1106     1107 1
    1164     1106     1112 1
    1165     1106     1111 1
    1166     1107     1127 1
    1167     1108     1111 1
    1168     1111     1114 1
    1169     1113     1119 1
    1170     1113     1131 1
    1171     1115     1118 1
    1172     1115     1120 1
    1173     1118     1121 1
    1174     1118     1124 1
    1175     1119     1121 1
    1176     1119     1122 1
    1177     1120     1126 1
    1178     1120     1122 1
    1179     1121     1125 1
    1180     1122     1123 1
    1181     1127     1128 1
    1182     1128     1135 1
    1183     1128     1136 1
    1184     1128     1138 1
    1185     1129     1136 1
    1186     1130     1138 1
    1187     1131     1134 1
    1188     1131     1139 1
    1189     1131     1140 1
    1190     1132     1134 1
    1191     1133     1139 1
    1192     1136     1137 1
    1193     1139     1141 1
    1194     1142     1143 1
    1195     1142     1146 1
    1196     1142     1149 1
    1197     1143     1147 1
    1198     1143     1148 1
    1199     1144     1147 1
    1200     1144     1154 1
    1201     1144     1155 1
    1202     1144     1156 1
    1203     1145     1146 1
    1204     1145     1151 1
    1205     1145     1150 1
    1206     1146     1166 1
    1207     1147     1150 1
    1208     1150     1153 1
    1209     1152     1158 1
    1210     1152     1170 1
    1211     1154     1157 1
    1212     1154     1159 1
    1213     1157     1160 1
    1214     1157     1163 1
    1215     1158     1160 1
    1216     1158     1161 1
    1217     1159     1165 1
    1218     1159     1161 1
    1219     1160     1164 1
    1220     1161     1162 1
    1221     1166     1167 1
    1222     1167     1174 1
    1223     1167     1175 1
    1224     1167     1177 1
    1225     1168     1175 1
    1226     1169     1177 1
    1227     1170     1173 1
    1228     1170     1178 1
    1229     1170     1179 1
    1230     1171     1173 1
    1231     1172     1178 1
    1232     1175     1176 1
    1233     1178     1180 1
    1234     1181     1182 1
    1235     1181     1185 1
    1236     1181     1188 1
    1237     1182     1186 1
    1238     1182     1187 1
    1239     1183     1186 1
    1240     1183     1193 1
    1241     1183     1194 1
    1242     1183     1195 1
    1243     1184     1185 1
    1244     1184     1190 1
    1245     1184     1189 1
    1246     1185     1205 1
    1247     1186     1189 1
    1248     1189     1192 1
    1249     1191     1197 1
    1250     1191     1209 1
    1251     1193     1196 1
    1252     1193     1198 1
    1253     1196     1199 1
    1254     1196     1202 1
    1255     1197     1199 1
    1256     1197     1200 1
    1257     1198     1204 1
    1258     1198     1200 1
    1259     1199     1203 1
    1260     1200     1201 1
    1261     1205     1206 1
    1262     1206     1213 1
    1263     1206     1214 1
    1264     1206     1216 1
    1265     1207     1214 1
    1266     1208     1216 1
    1267     1209     1212 1
    1268     1209     1217 1
    1269     1209     1218 1
    1270     1210     1212 1
    1271     1211     1217 1
    1272     1214     1215 1
    1273     1217     1219 1
@<TRIPOS>SUBSTRUCTURE
       1 RES             1 RESIDUE    0 **** ROOT      0
