@<TRIPOS>MOLECULE
RES
900 920 1 0 1
SMALL
NO_CHARGES
@<TRIPOS>CRYSIN
   40.2985    51.9573    87.4263    90.0000    90.0000    90.0000 1 1
@<TRIPOS>ATOM
       1 C           24.1919    39.4823    22.5915 C             1 RES     
       2 C           23.6564    38.9741    21.2445 C             1 RES     
       3 N           22.1912    38.9639    21.2442 N             1 RES     
       4 C           21.6944    38.4816    19.9520 C             1 RES     
       5 C           20.1593    38.4730    19.9422 C             1 RES     
       6 N           19.6623    37.9835    18.6534 N             1 RES     
       7 C           18.1974    37.9901    18.6450 C             1 RES     
       8 C           17.6602    37.4842    17.2978 C             1 RES     
       9 N           16.1983    37.4773    17.2853 N             1 RES     
      10 N           25.6539    39.4967    22.6012 N             1 RES     
      11 H           23.8309    38.8423    23.4050 H             1 RES     
      12 H           23.8253    40.4975    22.7806 H             1 RES     
      13 H           24.0309    37.9583    21.0680 H             1 RES     
      14 H           24.0281    39.6175    20.4373 H             1 RES     
      15 H           21.8522    39.9151    21.3937 H             1 RES     
      16 H           22.0622    37.4641    19.7703 H             1 RES     
      17 H           22.0607    39.1245    19.1417 H             1 RES     
      18 H           19.7921    39.4914    20.1200 H             1 RES     
      19 H           19.7925    37.8336    20.7551 H             1 RES     
      20 H           20.0012    37.0340    18.5017 H             1 RES     
      21 H           17.8292    39.0083    18.8199 H             1 RES     
      22 H           17.8190    37.3499    19.4518 H             1 RES     
      23 H           18.0246    36.4681    17.1060 H             1 RES     
      24 H           18.0233    38.1249    16.4866 H             1 RES     
      25 H           25.9761    39.7933    23.5218 H             1 RES     
      26 C           24.8633    35.9870    23.8567 C             1 RES     
      27 C           24.2248    34.9050    24.4768 C             1 RES     
      28 C           24.7402    33.6107    24.3002 C             1 RES     
      29 C           25.8062    33.3767    23.4151 C             1 RES     
      30 C           26.4129    34.4672    22.7767 C             1 RES     
      31 C           25.9500    35.7762    22.9977 C             1 RES     
      32 C           26.5876    36.9138    22.2525 C             1 RES     
      33 O           27.5105    36.6282    21.4892 O             1 RES     
      34 C           26.2035    31.9594    23.1091 C             1 RES     
      35 O           25.5951    31.0695    23.7033 O             1 RES     
      36 C           22.9388    35.0914    25.2324 C             1 RES     
      37 O           22.4166    34.0826    25.7073 O             1 RES     
      38 H           24.4972    36.9951    24.0247 H             1 RES     
      39 H           24.2801    32.7711    24.8257 H             1 RES     
      40 H           27.2414    34.3155    22.0858 H             1 RES     
      41 H           15.8277    36.8006    18.0609 H             1 RES     
      42 H           26.9786    31.7560    22.3644 H             1 RES     
      43 C           23.6703    47.2159    24.9347 C             1 RES     
      44 C           24.2505    45.8003    24.7982 C             1 RES     
      45 N           23.2175    44.7938    25.0568 N             1 RES     
      46 C           23.7838    43.4486    24.9185 C             1 RES     
      47 C           22.7057    42.3881    25.1831 C             1 RES     
      48 N           23.2732    41.0433    25.0525 N             1 RES     
      49 C           22.2372    40.0358    25.2928 C             1 RES     
      50 C           22.8153    38.6194    25.1545 C             1 RES     
      51 N           21.7898    37.6077    25.4037 N             1 RES     
      52 N           24.6939    48.2277    24.6777 N             1 RES     
      53 H           23.2642    47.3600    25.9428 H             1 RES     
      54 H           22.8483    47.3534    24.2233 H             1 RES     
      55 H           25.0715    45.6766    25.5151 H             1 RES     
      56 H           24.6592    45.6687    23.7885 H             1 RES     
      57 H           22.4655    44.9067    24.3759 H             1 RES     
      58 H           24.6036    43.3164    25.6354 H             1 RES     
      59 H           24.1905    43.3111    23.9087 H             1 RES     
      60 H           21.8879    42.5183    24.4633 H             1 RES     
      61 H           22.2955    42.5279    26.1912 H             1 RES     
      62 H           24.0256    40.9293    25.7310 H             1 RES     
      63 H           21.4204    40.1632    24.5720 H             1 RES     
      64 H           21.8225    40.1633    26.3007 H             1 RES     
      65 H           23.6376    38.4784    25.8658 H             1 RES     
      66 H           23.2213    38.4786    24.1467 H             1 RES     
      67 H           24.2894    49.1523    24.8218 H             1 RES     
      68 C           25.0446    47.6453    28.4270 C             1 RES     
      69 C           24.7469    47.3544    29.7648 C             1 RES     
      70 C           25.7940    47.2560    30.6953 C             1 RES     
      71 C           27.1342    47.3226    30.2782 C             1 RES     
      72 C           27.4154    47.5815    28.9296 C             1 RES     
      73 C           26.3748    47.7498    27.9994 C             1 RES     
      74 C           26.7144    47.9690    26.5528 C             1 RES     
      75 O           27.9106    48.0074    26.2640 O             1 RES     
      76 C           28.2234    47.0236    31.2705 C             1 RES     
      77 O           27.8740    46.7847    32.4263 O             1 RES     
      78 C           23.3426    47.0365    30.1964 C             1 RES     
      79 O           23.1727    46.7449    31.3805 O             1 RES     
      80 H           24.2375    47.7669    27.7111 H             1 RES     
      81 H           25.5640    47.0847    31.7491 H             1 RES     
      82 H           28.4449    47.6388    28.5782 H             1 RES     
      83 H           21.4141    37.7100    26.4261 H             1 RES     
      84 H           29.2677    46.9945    30.9459 H             1 RES     
      85 C           18.5283    50.4344    19.5708 C             1 RES     
      86 C           19.6546    50.3767    20.6136 C             1 RES     
      87 N           19.2389    49.5883    21.7766 N             1 RES     
      88 C           20.3244    49.5379    22.7608 C             1 RES     
      89 C           19.8981    48.7087    23.9805 C             1 RES     
      90 N           20.9800    48.6646    24.9679 N             1 RES     
      91 C           20.5727    47.8613    26.1233 C             1 RES     
      92 C           21.6988    47.8008    27.1663 C             1 RES     
      93 N           21.2959    47.0097    28.3278 N             1 RES     
      94 N           18.9340    51.2189    18.4056 N             1 RES     
      95 H           17.6296    50.8808    20.0124 H             1 RES     
      96 H           18.2690    49.4212    19.2440 H             1 RES     
      97 H           19.9040    51.3966    20.9314 H             1 RES     
      98 H           20.5502    49.9343    20.1600 H             1 RES     
      99 H           19.0239    48.6375    21.4739 H             1 RES     
     100 H           20.5768    50.5548    23.0860 H             1 RES     
     101 H           21.2215    49.0924    22.3125 H             1 RES     
     102 H           19.6496    47.6908    23.6552 H             1 RES     
     103 H           18.9985    49.1513    24.4265 H             1 RES     
     104 H           21.1973    49.6137    25.2703 H             1 RES     
     105 H           20.3266    46.8426    25.7996 H             1 RES     
     106 H           19.6756    48.2974    26.5805 H             1 RES     
     107 H           21.9600    48.8133    27.4959 H             1 RES     
     108 H           22.5957    47.3554    26.7219 H             1 RES     
     109 H           18.1506    51.2766    17.7559 H             1 RES     
     110 C           17.4165    53.8680    20.6857 C             1 RES     
     111 C           16.6132    54.5024    21.6425 C             1 RES     
     112 C           16.8957    55.8293    22.0051 C             1 RES     
     113 C           18.0405    56.4798    21.5145 C             1 RES     
     114 C           18.8525    55.8186    20.5826 C             1 RES     
     115 C           18.5428    54.5142    20.1593 C             1 RES     
     116 C           19.4671    53.8160    19.2032 C             1 RES     
     117 O           20.4533    54.4482    18.8243 O             1 RES     
     118 C           18.4102    57.8264    22.0715 C             1 RES     
     119 O           17.6453    58.3145    22.9032 O             1 RES     
     120 C           15.5289    53.7536    22.3658 C             1 RES     
     121 O           14.8998    54.3704    23.2257 O             1 RES     
     122 H           17.1773    52.8579    20.3679 H             1 RES     
     123 H           16.2399    56.3469    22.7085 H             1 RES     
     124 H           19.7459    56.2988    20.1852 H             1 RES     
     125 H           20.4300    47.4759    28.8070 H             1 RES     
     126 C           16.3320    44.0757    15.0637 C             1 RES     
     127 C           16.5912    45.5438    15.4332 C             1 RES     
     128 N           16.0245    45.8509    16.7490 N             1 RES     
     129 C           16.2833    47.2530    17.0905 C             1 RES     
     130 C           15.6968    47.5811    18.4708 C             1 RES     
     131 N           15.9485    48.9846    18.8090 N             1 RES     
     132 C           15.3985    49.2883    20.1324 C             1 RES     
     133 C           15.6588    50.7558    20.5045 C             1 RES     
     134 N           15.1031    51.0699    21.8197 N             1 RES     
     135 N           16.8946    43.7593    13.7519 N             1 RES     
     136 H           15.2542    43.8755    15.0529 H             1 RES     
     137 H           16.7843    43.4161    15.8127 H             1 RES     
     138 H           16.1337    46.1922    14.6758 H             1 RES     
     139 H           17.6716    45.7348    15.4352 H             1 RES     
     140 H           16.4669    45.2540    17.4490 H             1 RES     
     141 H           15.8253    47.9078    16.3388 H             1 RES     
     142 H           17.3632    47.4478    17.0975 H             1 RES     
     143 H           16.1581    46.9287    19.2226 H             1 RES     
     144 H           14.6176    47.3823    18.4656 H             1 RES     
     145 H           15.5086    49.5823    18.1101 H             1 RES     
     146 H           15.8610    48.6386    20.8853 H             1 RES     
     147 H           14.3180    49.0972    20.1378 H             1 RES     
     148 H           15.2066    51.4185    19.7572 H             1 RES     
     149 H           16.7365    50.9532    20.5134 H             1 RES     
     150 H           16.6653    42.7941    13.5170 H             1 RES     
     151 C           13.3852    44.9525    12.8691 C             1 RES     
     152 C           12.0109    45.2172    12.9347 C             1 RES     
     153 C           11.4134    45.9973    11.9314 C             1 RES     
     154 C           12.1951    46.6132    10.9393 C             1 RES     
     155 C           13.5742    46.3646    10.9074 C             1 RES     
     156 C           14.1751    45.5302    11.8662 C             1 RES     
     157 C           15.6637    45.3326    11.8349 C             1 RES     
     158 O           16.2809    45.9112    10.9404 O             1 RES     
     159 C           11.5453    47.5907    10.0000 C             1 RES     
     160 O           10.3321    47.7589    10.1224 O             1 RES     
     161 C           11.1906    44.7765    14.1147 C             1 RES     
     162 O           10.0000    45.0898    14.1179 O             1 RES     
     163 H           13.8456    44.3136    13.6163 H             1 RES     
     164 H           10.3336    46.1603    11.9470 H             1 RES     
     165 H           14.2046    46.8282    10.1495 H             1 RES     
     166 H           14.0192    50.9229    21.8048 H             1 RES     
     167 C           20.0975    37.8707    18.6540 C             1 RES     
     168 C           19.4159    38.6757    17.5375 C             1 RES     
     169 N           18.1630    39.2637    18.0187 N             1 RES     
     170 C           17.5262    40.0324    16.9449 C             1 RES     
     171 C           16.2149    40.6561    17.4432 C             1 RES     
     172 N           15.5741    41.4182    16.3679 N             1 RES     
     173 C           14.3305    42.0219    16.8527 C             1 RES     
     174 C           13.6485    42.8292    15.7379 C             1 RES     
     175 N           12.4006    43.4261    16.2108 N             1 RES     
     176 N           21.3495    37.2803    18.1835 N             1 RES     
     177 H           19.4306    37.0739    19.0037 H             1 RES     
     178 H           20.3112    38.5229    19.5082 H             1 RES     
     179 H           19.2081    38.0114    16.6897 H             1 RES     
     180 H           20.0934    39.4660    17.1910 H             1 RES     
     181 H           18.3678    39.8916    18.7969 H             1 RES     
     182 H           17.3120    39.3733    16.0945 H             1 RES     
     183 H           18.1990    40.8267    16.5977 H             1 RES     
     184 H           16.4301    41.3182    18.2911 H             1 RES     
     185 H           15.5434    39.8625    17.7946 H             1 RES     
     186 H           15.3701    40.7928    15.5889 H             1 RES     
     187 H           14.5448    42.6862    17.6987 H             1 RES     
     188 H           13.6489    41.2366    17.2030 H             1 RES     
     189 H           13.4326    42.1791    14.8819 H             1 RES     
     190 H           14.3176    43.6240    15.3897 H             1 RES     
     191 H           21.7515    36.7163    18.9315 H             1 RES     
     192 C           18.8012    34.5791    17.3296 C             1 RES     
     193 C           17.6724    33.7501    17.3704 C             1 RES     
     194 C           17.4389    32.8559    16.3131 C             1 RES     
     195 C           18.2506    32.8720    15.1662 C             1 RES     
     196 C           19.3572    33.7314    15.1274 C             1 RES     
     197 C           19.6418    34.5838    16.2086 C             1 RES     
     198 C           20.8026    35.5316    16.1079 C             1 RES     
     199 O           21.4618    35.4920    15.0687 O             1 RES     
     200 C           17.8559    32.0360    13.9806 C             1 RES     
     201 O           16.8542    31.3315    14.1043 O             1 RES     
     202 C           16.6523    33.8806    18.4667 C             1 RES     
     203 O           15.6653    33.1473    18.4039 O             1 RES     
     204 H           19.0122    35.2410    18.1639 H             1 RES     
     205 H           16.5918    32.1686    16.3659 H             1 RES     
     206 H           20.0039    33.7647    14.2514 H             1 RES     
     207 H           11.7076    42.6359    16.5141 H             1 RES     
     208 H           18.4317    32.0949    13.0523 H             1 RES     
     209 H           15.8507    37.0757    16.3289 H             1 RES     
     210 H           16.7842    34.6359    19.2470 H             1 RES     
     211 C           24.1919    39.4823    52.5915 C             1 RES     
     212 C           23.6564    38.9741    51.2445 C             1 RES     
     213 N           22.1912    38.9639    51.2442 N             1 RES     
     214 C           21.6944    38.4816    49.9520 C             1 RES     
     215 C           20.1593    38.4730    49.9422 C             1 RES     
     216 N           19.6623    37.9835    48.6534 N             1 RES     
     217 C           18.1974    37.9901    48.6450 C             1 RES     
     218 C           17.6602    37.4842    47.2978 C             1 RES     
     219 N           16.1983    37.4773    47.2853 N             1 RES     
     220 N           25.6539    39.4967    52.6012 N             1 RES     
     221 H           23.8309    38.8423    53.4050 H             1 RES     
     222 H           23.8253    40.4975    52.7806 H             1 RES     
     223 H           24.0309    37.9583    51.0680 H             1 RES     
     224 H           24.0281    39.6175    50.4373 H             1 RES     
     225 H           21.8522    39.9151    51.3937 H             1 RES     
     226 H           22.0622    37.4641    49.7703 H             1 RES     
     227 H           22.0607    39.1245    49.1417 H             1 RES     
     228 H           19.7921    39.4914    50.1200 H             1 RES     
     229 H           19.7925    37.8336    50.7551 H             1 RES     
     230 H           20.0012    37.0340    48.5017 H             1 RES     
     231 H           17.8292    39.0083    48.8199 H             1 RES     
     232 H           17.8190    37.3499    49.4518 H             1 RES     
     233 H           18.0246    36.4681    47.1060 H             1 RES     
     234 H           18.0233    38.1249    46.4866 H             1 RES     
     235 H           25.9761    39.7933    53.5218 H             1 RES     
     236 C           24.8633    35.9870    53.8567 C             1 RES     
     237 C           24.2248    34.9050    54.4768 C             1 RES     
     238 C           24.7402    33.6107    54.3002 C             1 RES     
     239 C           25.8062    33.3767    53.4151 C             1 RES     
     240 C           26.4129    34.4672    52.7767 C             1 RES     
     241 C           25.9500    35.7762    52.9977 C             1 RES     
     242 C           26.5876    36.9138    52.2525 C             1 RES     
     243 O           27.5105    36.6282    51.4892 O             1 RES     
     244 C           26.2035    31.9594    53.1091 C             1 RES     
     245 O           25.5951    31.0695    53.7033 O             1 RES     
     246 C           22.9388    35.0914    55.2324 C             1 RES     
     247 O           22.4166    34.0826    55.7073 O             1 RES     
     248 H           24.4972    36.9951    54.0247 H             1 RES     
     249 H           24.2801    32.7711    54.8257 H             1 RES     
     250 H           27.2414    34.3155    52.0858 H             1 RES     
     251 H           15.8277    36.8006    48.0609 H             1 RES     
     252 C           23.6703    47.2159    54.9347 C             1 RES     
     253 C           24.2505    45.8003    54.7982 C             1 RES     
     254 N           23.2175    44.7938    55.0568 N             1 RES     
     255 C           23.7838    43.4486    54.9185 C             1 RES     
     256 C           22.7057    42.3881    55.1831 C             1 RES     
     257 N           23.2732    41.0433    55.0525 N             1 RES     
     258 C           22.2372    40.0358    55.2928 C             1 RES     
     259 C           22.8153    38.6194    55.1545 C             1 RES     
     260 N           21.7898    37.6077    55.4037 N             1 RES     
     261 N           24.6939    48.2277    54.6777 N             1 RES     
     262 H           23.2642    47.3600    55.9428 H             1 RES     
     263 H           22.8483    47.3534    54.2233 H             1 RES     
     264 H           25.0715    45.6766    55.5151 H             1 RES     
     265 H           24.6592    45.6687    53.7885 H             1 RES     
     266 H           22.4655    44.9067    54.3759 H             1 RES     
     267 H           24.6036    43.3164    55.6354 H             1 RES     
     268 H           24.1905    43.3111    53.9087 H             1 RES     
     269 H           21.8879    42.5183    54.4633 H             1 RES     
     270 H           22.2955    42.5279    56.1912 H             1 RES     
     271 H           24.0256    40.9293    55.7310 H             1 RES     
     272 H           21.4204    40.1632    54.5720 H             1 RES     
     273 H           21.8225    40.1633    56.3007 H             1 RES     
     274 H           23.6376    38.4784    55.8658 H             1 RES     
     275 H           23.2213    38.4786    54.1467 H             1 RES     
     276 H           24.2894    49.1523    54.8218 H             1 RES     
     277 C           25.0446    47.6453    58.4270 C             1 RES     
     278 C           24.7469    47.3544    59.7648 C             1 RES     
     279 C           25.7940    47.2560    60.6953 C             1 RES     
     280 C           27.1342    47.3226    60.2782 C             1 RES     
     281 C           27.4154    47.5815    58.9296 C             1 RES     
     282 C           26.3748    47.7498    57.9994 C             1 RES     
     283 C           26.7144    47.9690    56.5528 C             1 RES     
     284 O           27.9106    48.0074    56.2640 O             1 RES     
     285 C           28.2234    47.0236    61.2705 C             1 RES     
     286 O           27.8740    46.7847    62.4263 O             1 RES     
     287 C           23.3426    47.0365    60.1964 C             1 RES     
     288 O           23.1727    46.7449    61.3805 O             1 RES     
     289 H           24.2375    47.7669    57.7111 H             1 RES     
     290 H           25.5640    47.0847    61.7491 H             1 RES     
     291 H           28.4449    47.6388    58.5782 H             1 RES     
     292 H           21.4141    37.7100    56.4261 H             1 RES     
     293 C           18.5283    50.4344    49.5708 C             1 RES     
     294 C           19.6546    50.3767    50.6136 C             1 RES     
     295 N           19.2389    49.5883    51.7766 N             1 RES     
     296 C           20.3244    49.5379    52.7608 C             1 RES     
     297 C           19.8981    48.7087    53.9805 C             1 RES     
     298 N           20.9800    48.6646    54.9679 N             1 RES     
     299 C           20.5727    47.8613    56.1233 C             1 RES     
     300 C           21.6988    47.8008    57.1663 C             1 RES     
     301 N           21.2959    47.0097    58.3278 N             1 RES     
     302 N           18.9340    51.2189    48.4056 N             1 RES     
     303 H           17.6296    50.8808    50.0124 H             1 RES     
     304 H           18.2690    49.4212    49.2440 H             1 RES     
     305 H           19.9040    51.3966    50.9314 H             1 RES     
     306 H           20.5502    49.9343    50.1600 H             1 RES     
     307 H           19.0239    48.6375    51.4739 H             1 RES     
     308 H           20.5768    50.5548    53.0860 H             1 RES     
     309 H           21.2215    49.0924    52.3125 H             1 RES     
     310 H           19.6496    47.6908    53.6552 H             1 RES     
     311 H           18.9985    49.1513    54.4265 H             1 RES     
     312 H           21.1973    49.6137    55.2703 H             1 RES     
     313 H           20.3266    46.8426    55.7996 H             1 RES     
     314 H           19.6756    48.2974    56.5805 H             1 RES     
     315 H           21.9600    48.8133    57.4959 H             1 RES     
     316 H           22.5957    47.3554    56.7219 H             1 RES     
     317 H           18.1506    51.2766    47.7559 H             1 RES     
     318 C           17.4165    53.8680    50.6857 C             1 RES     
     319 C           16.6132    54.5024    51.6425 C             1 RES     
     320 C           16.8957    55.8293    52.0051 C             1 RES     
     321 C           18.0405    56.4798    51.5145 C             1 RES     
     322 C           18.8525    55.8186    50.5826 C             1 RES     
     323 C           18.5428    54.5142    50.1593 C             1 RES     
     324 C           19.4671    53.8160    49.2032 C             1 RES     
     325 O           20.4533    54.4482    48.8243 O             1 RES     
     326 C           18.4102    57.8264    52.0715 C             1 RES     
     327 O           17.6453    58.3145    52.9032 O             1 RES     
     328 C           15.5289    53.7536    52.3658 C             1 RES     
     329 O           14.8998    54.3704    53.2257 O             1 RES     
     330 H           17.1773    52.8579    50.3679 H             1 RES     
     331 H           16.2399    56.3469    52.7085 H             1 RES     
     332 H           19.7459    56.2988    50.1852 H             1 RES     
     333 H           20.4300    47.4759    58.8070 H             1 RES     
     334 C           16.3320    44.0757    45.0637 C             1 RES     
     335 C           16.5912    45.5438    45.4332 C             1 RES     
     336 N           16.0245    45.8509    46.7490 N             1 RES     
     337 C           16.2833    47.2530    47.0905 C             1 RES     
     338 C           15.6968    47.5811    48.4708 C             1 RES     
     339 N           15.9485    48.9846    48.8090 N             1 RES     
     340 C           15.3985    49.2883    50.1324 C             1 RES     
     341 C           15.6588    50.7558    50.5045 C             1 RES     
     342 N           15.1031    51.0699    51.8197 N             1 RES     
     343 N           16.8946    43.7593    43.7519 N             1 RES     
     344 H           15.2542    43.8755    45.0529 H             1 RES     
     345 H           16.7843    43.4161    45.8127 H             1 RES     
     346 H           16.1337    46.1922    44.6758 H             1 RES     
     347 H           17.6716    45.7348    45.4352 H             1 RES     
     348 H           16.4669    45.2540    47.4490 H             1 RES     
     349 H           15.8253    47.9078    46.3388 H             1 RES     
     350 H           17.3632    47.4478    47.0975 H             1 RES     
     351 H           16.1581    46.9287    49.2226 H             1 RES     
     352 H           14.6176    47.3823    48.4656 H             1 RES     
     353 H           15.5086    49.5823    48.1101 H             1 RES     
     354 H           15.8610    48.6386    50.8853 H             1 RES     
     355 H           14.3180    49.0972    50.1378 H             1 RES     
     356 H           15.2066    51.4185    49.7572 H             1 RES     
     357 H           16.7365    50.9532    50.5134 H             1 RES     
     358 H           16.6653    42.7941    43.5170 H             1 RES     
     359 C           13.3852    44.9525    42.8691 C             1 RES     
     360 C           12.0109    45.2172    42.9347 C             1 RES     
     361 C           11.4134    45.9973    41.9314 C             1 RES     
     362 C           12.1951    46.6132    40.9393 C             1 RES     
     363 C           13.5742    46.3646    40.9074 C             1 RES     
     364 C           14.1751    45.5302    41.8662 C             1 RES     
     365 C           15.6637    45.3326    41.8349 C             1 RES     
     366 O           16.2809    45.9112    40.9404 O             1 RES     
     367 C           11.5453    47.5907    40.0000 C             1 RES     
     368 O           10.3321    47.7589    40.1224 O             1 RES     
     369 C           11.1906    44.7765    44.1147 C             1 RES     
     370 O           10.0000    45.0898    44.1179 O             1 RES     
     371 H           13.8456    44.3136    43.6163 H             1 RES     
     372 H           10.3336    46.1603    41.9470 H             1 RES     
     373 H           14.2046    46.8282    40.1495 H             1 RES     
     374 H           14.0192    50.9229    51.8048 H             1 RES     
     375 C           20.0975    37.8707    48.6540 C             1 RES     
     376 C           19.4159    38.6757    47.5375 C             1 RES     
     377 N           18.1630    39.2637    48.0187 N             1 RES     
     378 C           17.5262    40.0324    46.9449 C             1 RES     
     379 C           16.2149    40.6561    47.4432 C             1 RES     
     380 N           15.5741    41.4182    46.3679 N             1 RES     
     381 C           14.3305    42.0219    46.8527 C             1 RES     
     382 C           13.6485    42.8292    45.7379 C             1 RES     
     383 N           12.4006    43.4261    46.2108 N             1 RES     
     384 N           21.3495    37.2803    48.1835 N             1 RES     
     385 H           19.4306    37.0739    49.0037 H             1 RES     
     386 H           20.3112    38.5229    49.5082 H             1 RES     
     387 H           19.2081    38.0114    46.6897 H             1 RES     
     388 H           20.0934    39.4660    47.1910 H             1 RES     
     389 H           18.3678    39.8916    48.7969 H             1 RES     
     390 H           17.3120    39.3733    46.0945 H             1 RES     
     391 H           18.1990    40.8267    46.5977 H             1 RES     
     392 H           16.4301    41.3182    48.2911 H             1 RES     
     393 H           15.5434    39.8625    47.7946 H             1 RES     
     394 H           15.3701    40.7928    45.5889 H             1 RES     
     395 H           14.5448    42.6862    47.6987 H             1 RES     
     396 H           13.6489    41.2366    47.2030 H             1 RES     
     397 H           13.4326    42.1791    44.8819 H             1 RES     
     398 H           14.3176    43.6240    45.3897 H             1 RES     
     399 H           21.7515    36.7163    48.9315 H             1 RES     
     400 C           18.8012    34.5791    47.3296 C             1 RES     
     401 C           17.6724    33.7501    47.3704 C             1 RES     
     402 C           17.4389    32.8559    46.3131 C             1 RES     
     403 C           18.2506    32.8720    45.1662 C             1 RES     
     404 C           19.3572    33.7314    45.1274 C             1 RES     
     405 C           19.6418    34.5838    46.2086 C             1 RES     
     406 C           20.8026    35.5316    46.1079 C             1 RES     
     407 O           21.4618    35.4920    45.0687 O             1 RES     
     408 C           17.8559    32.0360    43.9806 C             1 RES     
     409 O           16.8542    31.3315    44.1043 O             1 RES     
     410 C           16.6523    33.8806    48.4667 C             1 RES     
     411 O           15.6653    33.1473    48.4039 O             1 RES     
     412 H           19.0122    35.2410    48.1639 H             1 RES     
     413 H           16.5918    32.1686    46.3659 H             1 RES     
     414 H           20.0039    33.7647    44.2514 H             1 RES     
     415 H           11.7076    42.6359    46.5141 H             1 RES     
     416 H           18.4317    32.0949    43.0523 H             1 RES     
     417 H           15.8507    37.0757    46.3289 H             1 RES     
     418 H           16.7842    34.6359    49.2470 H             1 RES     
     419 C           24.1919    39.4823    82.5915 C             1 RES     
     420 C           23.6564    38.9741    81.2445 C             1 RES     
     421 N           22.1912    38.9639    81.2442 N             1 RES     
     422 C           21.6944    38.4816    79.9520 C             1 RES     
     423 C           20.1593    38.4730    79.9422 C             1 RES     
     424 N           19.6623    37.9835    78.6534 N             1 RES     
     425 C           18.1974    37.9901    78.6450 C             1 RES     
     426 C           17.6602    37.4842    77.2978 C             1 RES     
     427 N           16.1983    37.4773    77.2853 N             1 RES     
     428 N           25.6539    39.4967    82.6012 N             1 RES     
     429 H           23.8309    38.8423    83.4050 H             1 RES     
     430 H           23.8253    40.4975    82.7806 H             1 RES     
     431 H           24.0309    37.9583    81.0680 H             1 RES     
     432 H           24.0281    39.6175    80.4373 H             1 RES     
     433 H           21.8522    39.9151    81.3937 H             1 RES     
     434 H           22.0622    37.4641    79.7703 H             1 RES     
     435 H           22.0607    39.1245    79.1417 H             1 RES     
     436 H           19.7921    39.4914    80.1200 H             1 RES     
     437 H           19.7925    37.8336    80.7551 H             1 RES     
     438 H           20.0012    37.0340    78.5017 H             1 RES     
     439 H           17.8292    39.0083    78.8199 H             1 RES     
     440 H           17.8190    37.3499    79.4518 H             1 RES     
     441 H           18.0246    36.4681    77.1060 H             1 RES     
     442 H           18.0233    38.1249    76.4866 H             1 RES     
     443 H           25.9761    39.7933    83.5218 H             1 RES     
     444 C           24.8633    35.9870    83.8567 C             1 RES     
     445 C           24.2248    34.9050    84.4768 C             1 RES     
     446 C           24.7402    33.6107    84.3002 C             1 RES     
     447 C           25.8062    33.3767    83.4151 C             1 RES     
     448 C           26.4129    34.4672    82.7767 C             1 RES     
     449 C           25.9500    35.7762    82.9977 C             1 RES     
     450 C           26.5876    36.9138    82.2525 C             1 RES     
     451 O           27.5105    36.6282    81.4892 O             1 RES     
     452 C           26.2035    31.9594    83.1091 C             1 RES     
     453 O           25.5951    31.0695    83.7033 O             1 RES     
     454 C           22.9388    35.0914    85.2324 C             1 RES     
     455 O           22.4166    34.0826    85.7073 O             1 RES     
     456 H           24.4972    36.9951    84.0247 H             1 RES     
     457 H           24.2801    32.7711    84.8257 H             1 RES     
     458 H           27.2414    34.3155    82.0858 H             1 RES     
     459 H           15.8277    36.8006    78.0609 H             1 RES     
     460 C           23.6703    47.2159    84.9347 C             1 RES     
     461 C           24.2505    45.8003    84.7982 C             1 RES     
     462 N           23.2175    44.7938    85.0568 N             1 RES     
     463 C           23.7838    43.4486    84.9185 C             1 RES     
     464 C           22.7057    42.3881    85.1831 C             1 RES     
     465 N           23.2732    41.0433    85.0525 N             1 RES     
     466 C           22.2372    40.0358    85.2928 C             1 RES     
     467 C           22.8153    38.6194    85.1545 C             1 RES     
     468 N           21.7898    37.6077    85.4037 N             1 RES     
     469 N           24.6939    48.2277    84.6777 N             1 RES     
     470 H           23.2642    47.3600    85.9428 H             1 RES     
     471 H           22.8483    47.3534    84.2233 H             1 RES     
     472 H           25.0715    45.6766    85.5151 H             1 RES     
     473 H           24.6592    45.6687    83.7885 H             1 RES     
     474 H           22.4655    44.9067    84.3759 H             1 RES     
     475 H           24.6036    43.3164    85.6354 H             1 RES     
     476 H           24.1905    43.3111    83.9087 H             1 RES     
     477 H           21.8879    42.5183    84.4633 H             1 RES     
     478 H           22.2955    42.5279    86.1912 H             1 RES     
     479 H           24.0256    40.9293    85.7310 H             1 RES     
     480 H           21.4204    40.1632    84.5720 H             1 RES     
     481 H           21.8225    40.1633    86.3007 H             1 RES     
     482 H           23.6376    38.4784    85.8658 H             1 RES     
     483 H           23.2213    38.4786    84.1467 H             1 RES     
     484 H           24.2894    49.1523    84.8218 H             1 RES     
     485 C           25.0446    47.6453    88.4270 C             1 RES     
     486 C           24.7469    47.3544    89.7648 C             1 RES     
     487 C           25.7940    47.2560    90.6953 C             1 RES     
     488 C           27.1342    47.3226    90.2782 C             1 RES     
     489 C           27.4154    47.5815    88.9296 C             1 RES     
     490 C           26.3748    47.7498    87.9994 C             1 RES     
     491 C           26.7144    47.9690    86.5528 C             1 RES     
     492 O           27.9106    48.0074    86.2640 O             1 RES     
     493 C           28.2234    47.0236    91.2705 C             1 RES     
     494 O           27.8740    46.7847    92.4263 O             1 RES     
     495 C           23.3426    47.0365    90.1964 C             1 RES     
     496 O           23.1727    46.7449    91.3805 O             1 RES     
     497 H           24.2375    47.7669    87.7111 H             1 RES     
     498 H           25.5640    47.0847    91.7491 H             1 RES     
     499 H           28.4449    47.6388    88.5782 H             1 RES     
     500 H           21.4141    37.7100    86.4261 H             1 RES     
     501 C           18.5283    50.4344    79.5708 C             1 RES     
     502 C           19.6546    50.3767    80.6136 C             1 RES     
     503 N           19.2389    49.5883    81.7766 N             1 RES     
     504 C           20.3244    49.5379    82.7608 C             1 RES     
     505 C           19.8981    48.7087    83.9805 C             1 RES     
     506 N           20.9800    48.6646    84.9679 N             1 RES     
     507 C           20.5727    47.8613    86.1233 C             1 RES     
     508 C           21.6988    47.8008    87.1663 C             1 RES     
     509 N           21.2959    47.0097    88.3278 N             1 RES     
     510 N           18.9340    51.2189    78.4056 N             1 RES     
     511 H           17.6296    50.8808    80.0124 H             1 RES     
     512 H           18.2690    49.4212    79.2440 H             1 RES     
     513 H           19.9040    51.3966    80.9314 H             1 RES     
     514 H           20.5502    49.9343    80.1600 H             1 RES     
     515 H           19.0239    48.6375    81.4739 H             1 RES     
     516 H           20.5768    50.5548    83.0860 H             1 RES     
     517 H           21.2215    49.0924    82.3125 H             1 RES     
     518 H           19.6496    47.6908    83.6552 H             1 RES     
     519 H           18.9985    49.1513    84.4265 H             1 RES     
     520 H           21.1973    49.6137    85.2703 H             1 RES     
     521 H           20.3266    46.8426    85.7996 H             1 RES     
     522 H           19.6756    48.2974    86.5805 H             1 RES     
     523 H           21.9600    48.8133    87.4959 H             1 RES     
     524 H           22.5957    47.3554    86.7219 H             1 RES     
     525 H           18.1506    51.2766    77.7559 H             1 RES     
     526 C           17.4165    53.8680    80.6857 C             1 RES     
     527 C           16.6132    54.5024    81.6425 C             1 RES     
     528 C           16.8957    55.8293    82.0051 C             1 RES     
     529 C           18.0405    56.4798    81.5145 C             1 RES     
     530 C           18.8525    55.8186    80.5826 C             1 RES     
     531 C           18.5428    54.5142    80.1593 C             1 RES     
     532 C           19.4671    53.8160    79.2032 C             1 RES     
     533 O           20.4533    54.4482    78.8243 O             1 RES     
     534 C           18.4102    57.8264    82.0715 C             1 RES     
     535 O           17.6453    58.3145    82.9032 O             1 RES     
     536 C           15.5289    53.7536    82.3658 C             1 RES     
     537 O           14.8998    54.3704    83.2257 O             1 RES     
     538 H           17.1773    52.8579    80.3679 H             1 RES     
     539 H           16.2399    56.3469    82.7085 H             1 RES     
     540 H           19.7459    56.2988    80.1852 H             1 RES     
     541 H           20.4300    47.4759    88.8070 H             1 RES     
     542 H           19.3388    58.3129    81.7586 H             1 RES     
     543 C           16.3320    44.0757    75.0637 C             1 RES     
     544 C           16.5912    45.5438    75.4332 C             1 RES     
     545 N           16.0245    45.8509    76.7490 N             1 RES     
     546 C           16.2833    47.2530    77.0905 C             1 RES     
     547 C           15.6968    47.5811    78.4708 C             1 RES     
     548 N           15.9485    48.9846    78.8090 N             1 RES     
     549 C           15.3985    49.2883    80.1324 C             1 RES     
     550 C           15.6588    50.7558    80.5045 C             1 RES     
     551 N           15.1031    51.0699    81.8197 N             1 RES     
     552 N           16.8946    43.7593    73.7519 N             1 RES     
     553 H           15.2542    43.8755    75.0529 H             1 RES     
     554 H           16.7843    43.4161    75.8127 H             1 RES     
     555 H           16.1337    46.1922    74.6758 H             1 RES     
     556 H           17.6716    45.7348    75.4352 H             1 RES     
     557 H           16.4669    45.2540    77.4490 H             1 RES     
     558 H           15.8253    47.9078    76.3388 H             1 RES     
     559 H           17.3632    47.4478    77.0975 H             1 RES     
     560 H           16.1581    46.9287    79.2226 H             1 RES     
     561 H           14.6176    47.3823    78.4656 H             1 RES     
     562 H           15.5086    49.5823    78.1101 H             1 RES     
     563 H           15.8610    48.6386    80.8853 H             1 RES     
     564 H           14.3180    49.0972    80.1378 H             1 RES     
     565 H           15.2066    51.4185    79.7572 H             1 RES     
     566 H           16.7365    50.9532    80.5134 H             1 RES     
     567 H           16.6653    42.7941    73.5170 H             1 RES     
     568 C           13.3852    44.9525    72.8691 C             1 RES     
     569 C           12.0109    45.2172    72.9347 C             1 RES     
     570 C           11.4134    45.9973    71.9314 C             1 RES     
     571 C           12.1951    46.6132    70.9393 C             1 RES     
     572 C           13.5742    46.3646    70.9074 C             1 RES     
     573 C           14.1751    45.5302    71.8662 C             1 RES     
     574 C           15.6637    45.3326    71.8349 C             1 RES     
     575 O           16.2809    45.9112    70.9404 O             1 RES     
     576 C           11.5453    47.5907    70.0000 C             1 RES     
     577 O           10.3321    47.7589    70.1224 O             1 RES     
     578 C           11.1906    44.7765    74.1147 C             1 RES     
     579 O           10.0000    45.0898    74.1179 O             1 RES     
     580 H           13.8456    44.3136    73.6163 H             1 RES     
     581 H           10.3336    46.1603    71.9470 H             1 RES     
     582 H           14.2046    46.8282    70.1495 H             1 RES     
     583 H           14.0192    50.9229    81.8048 H             1 RES     
     584 H           12.1519    48.1377    69.2722 H             1 RES     
     585 C           20.0975    37.8707    78.6540 C             1 RES     
     586 C           19.4159    38.6757    77.5375 C             1 RES     
     587 N           18.1630    39.2637    78.0187 N             1 RES     
     588 C           17.5262    40.0324    76.9449 C             1 RES     
     589 C           16.2149    40.6561    77.4432 C             1 RES     
     590 N           15.5741    41.4182    76.3679 N             1 RES     
     591 C           14.3305    42.0219    76.8527 C             1 RES     
     592 C           13.6485    42.8292    75.7379 C             1 RES     
     593 N           12.4006    43.4261    76.2108 N             1 RES     
     594 N           21.3495    37.2803    78.1835 N             1 RES     
     595 H           19.4306    37.0739    79.0037 H             1 RES     
     596 H           20.3112    38.5229    79.5082 H             1 RES     
     597 H           19.2081    38.0114    76.6897 H             1 RES     
     598 H           20.0934    39.4660    77.1910 H             1 RES     
     599 H           18.3678    39.8916    78.7969 H             1 RES     
     600 H           17.3120    39.3733    76.0945 H             1 RES     
     601 H           18.1990    40.8267    76.5977 H             1 RES     
     602 H           16.4301    41.3182    78.2911 H             1 RES     
     603 H           15.5434    39.8625    77.7946 H             1 RES     
     604 H           15.3701    40.7928    75.5889 H             1 RES     
     605 H           14.5448    42.6862    77.6987 H             1 RES     
     606 H           13.6489    41.2366    77.2030 H             1 RES     
     607 H           13.4326    42.1791    74.8819 H             1 RES     
     608 H           14.3176    43.6240    75.3897 H             1 RES     
     609 H           21.7515    36.7163    78.9315 H             1 RES     
     610 C           18.8012    34.5791    77.3296 C             1 RES     
     611 C           17.6724    33.7501    77.3704 C             1 RES     
     612 C           17.4389    32.8559    76.3131 C             1 RES     
     613 C           18.2506    32.8720    75.1662 C             1 RES     
     614 C           19.3572    33.7314    75.1274 C             1 RES     
     615 C           19.6418    34.5838    76.2086 C             1 RES     
     616 C           20.8026    35.5316    76.1079 C             1 RES     
     617 O           21.4618    35.4920    75.0687 O             1 RES     
     618 C           17.8559    32.0360    73.9806 C             1 RES     
     619 O           16.8542    31.3315    74.1043 O             1 RES     
     620 C           16.6523    33.8806    78.4667 C             1 RES     
     621 O           15.6653    33.1473    78.4039 O             1 RES     
     622 H           19.0122    35.2410    78.1639 H             1 RES     
     623 H           16.5918    32.1686    76.3659 H             1 RES     
     624 H           20.0039    33.7647    74.2514 H             1 RES     
     625 H           11.7076    42.6359    76.5141 H             1 RES     
     626 H           18.4317    32.0949    73.0523 H             1 RES     
     627 H           15.8507    37.0757    76.3289 H             1 RES     
     628 H           16.7842    34.6359    79.2470 H             1 RES     
     629 C           26.2982    59.4470    34.6791 C             1 RES     
     630 C           25.2817    60.5439    34.3285 C             1 RES     
     631 N           25.5097    61.7373    35.1474 N             1 RES     
     632 C           24.5362    62.7767    34.7991 C             1 RES     
     633 C           24.7722    64.0327    35.6497 C             1 RES     
     634 N           23.7943    65.0691    35.3073 N             1 RES     
     635 C           24.0327    66.2697    36.1123 C             1 RES     
     636 C           23.0182    67.3685    35.7614 C             1 RES     
     637 N           23.2426    68.5665    36.5686 N             1 RES     
     638 N           26.0789    58.2516    33.8663 N             1 RES     
     639 H           26.2157    59.1833    35.7400 H             1 RES     
     640 H           27.3168    59.8121    34.5064 H             1 RES     
     641 H           24.2675    60.1652    34.5056 H             1 RES     
     642 H           25.3685    60.7958    33.2643 H             1 RES     
     643 H           26.4496    62.0912    34.9646 H             1 RES     
     644 H           23.5191    62.4061    34.9773 H             1 RES     
     645 H           24.6220    63.0348    33.7360 H             1 RES     
     646 H           25.7881    64.4052    35.4681 H             1 RES     
     647 H           24.6909    63.7743    36.7130 H             1 RES     
     648 H           22.8548    64.7168    35.4878 H             1 RES     
     649 H           25.0471    66.6446    35.9295 H             1 RES     
     650 H           23.9495    66.0239    37.1784 H             1 RES     
     651 H           21.9978    67.0064    35.9340 H             1 RES     
     652 H           23.1022    67.6292    34.7005 H             1 RES     
     653 H           26.7374    57.5291    34.1553 H             1 RES     
     654 C           23.8397    57.6106    36.8820 C             1 RES     
     655 C           23.3292    57.6060    38.1867 C             1 RES     
     656 C           22.0548    57.0655    38.4232 C             1 RES     
     657 C           21.2427    56.6467    37.3557 C             1 RES     
     658 C           21.7566    56.6888    36.0522 C             1 RES     
     659 C           23.0571    57.1644    35.8089 C             1 RES     
     660 C           23.5530    57.2484    34.3936 C             1 RES     
     661 O           22.7807    56.8702    33.5124 O             1 RES     
     662 C           19.8183    56.2535    37.6324 C             1 RES     
     663 O           19.4538    56.2709    38.8079 O             1 RES     
     664 C           24.0717    58.2680    39.3136 C             1 RES     
     665 O           23.5326    58.2612    40.4204 O             1 RES     
     666 Cl          25.5989    59.0682    39.0017 Cl            1 RES     
     667 H           24.8418    57.9859    36.6984 H             1 RES     
     668 H           21.6750    57.0086    39.4456 H             1 RES     
     669 H           21.1497    56.3700    35.2056 H             1 RES     
     670 C           12.8222    49.7859    41.3720 C             1 RES     
     671 C           12.7975    50.9875    40.4157 C             1 RES     
     672 N           14.1425    51.2673    39.9063 N             1 RES     
     673 C           14.1031    52.4126    38.9919 C             1 RES     
     674 C           15.5086    52.7087    38.4497 C             1 RES     
     675 N           15.4708    53.8584    37.5418 N             1 RES     
     676 C           16.8119    54.1279    37.0173 C             1 RES     
     677 C           16.7886    55.3282    36.0589 C             1 RES     
     678 N           18.1257    55.6105    35.5394 N             1 RES     
     679 N           11.4837    49.4984    41.8854 N             1 RES     
     680 H           13.4963    49.9882    42.2126 H             1 RES     
     681 H           13.2002    48.8999    40.8497 H             1 RES     
     682 H           12.4173    51.8663    40.9509 H             1 RES     
     683 H           12.1159    50.7771    39.5821 H             1 RES     
     684 H           14.4817    50.4503    39.3969 H             1 RES     
     685 H           13.7271    53.2966    39.5217 H             1 RES     
     686 H           13.4253    52.2051    38.1542 H             1 RES     
     687 H           15.8825    51.8257    37.9166 H             1 RES     
     688 H           16.1877    52.9120    39.2873 H             1 RES     
     689 H           15.1309    54.6751    38.0484 H             1 RES     
     690 H           17.1857    53.2468    36.4817 H             1 RES     
     691 H           17.4994    54.3371    37.8465 H             1 RES     
     692 H           16.4116    56.2166    36.5790 H             1 RES     
     693 H           16.1134    55.1235    35.2206 H             1 RES     
     694 H           18.0827    56.4322    34.9375 H             1 RES     
     695 H           23.1114    68.3255    37.6276 H             1 RES     
     696 H           11.1240    50.3629    42.4511 H             1 RES     
     697 C           10.8517    49.3302    18.8125 C             1 RES     
     698 C            9.3441    49.4615    19.0755 C             1 RES     
     699 N            8.9608    50.8720    19.1781 N             1 RES     
     700 C            7.5198    50.9822    19.4244 C             1 RES     
     701 C            7.1094    52.4580    19.5279 C             1 RES     
     702 N            5.6703    52.5684    19.7818 N             1 RES     
     703 C            5.2824    53.9785    19.8663 C             1 RES     
     704 C            3.7744    54.1117    20.1273 C             1 RES     
     705 N            3.3810    55.5164    20.2239 N             1 RES     
     706 N           11.2440    47.9256    18.7079 N             1 RES     
     707 H           11.4174    49.8044    19.6230 H             1 RES     
     708 H           11.1147    49.8428    17.8805 H             1 RES     
     709 H            9.0950    48.9442    20.0103 H             1 RES     
     710 H            8.7879    48.9789    18.2623 H             1 RES     
     711 H            9.1820    51.3413    18.2991 H             1 RES     
     712 H            7.2637    50.4700    20.3601 H             1 RES     
     713 H            6.9591    50.5040    18.6113 H             1 RES     
     714 H            7.3621    52.9688    18.5904 H             1 RES     
     715 H            7.6730    52.9377    20.3380 H             1 RES     
     716 H            5.4473    52.0988    20.6588 H             1 RES     
     717 H            5.5319    54.4897    18.9285 H             1 RES     
     718 H            5.8370    54.4679    20.6768 H             1 RES     
     719 H            3.5082    53.6004    21.0598 H             1 RES     
     720 H            3.2118    53.6360    19.3164 H             1 RES     
     721 H           12.2540    47.8723    18.5805 H             1 RES     
     722 C           11.6118    48.6005    22.4400 C             1 RES     
     723 C           11.8437    49.2456    23.6619 C             1 RES     
     724 C           11.5821    48.5614    24.8599 C             1 RES     
     725 C           10.9781    47.2927    24.8454 C             1 RES     
     726 C           10.7220    46.6748    23.6136 C             1 RES     
     727 C           11.0419    47.3209    22.4066 C             1 RES     
     728 C           10.7008    46.6524    21.1056 C             1 RES     
     729 O           10.1660    45.5455    21.1747 O             1 RES     
     730 C           10.5413    46.6771    26.1456 C             1 RES     
     731 O           10.7903    47.3084    27.1725 O             1 RES     
     732 C           12.2592    50.6894    23.7111 C             1 RES     
     733 O           12.3964    51.1953    24.8251 O             1 RES     
     734 Cl          12.4532    51.5934    22.2229 Cl            1 RES     
     735 H           11.8536    49.1068    21.5106 H             1 RES     
     736 H           11.8134    49.0387    25.8146 H             1 RES     
     737 H           10.2550    45.6914    23.5722 H             1 RES     
     738 C           12.5661    42.1438    35.0960 C             1 RES     
     739 C           11.3161    42.3251    34.2220 C             1 RES     
     740 N           11.6935    42.6858    32.8529 N             1 RES     
     741 C           10.4918    42.8509    32.0296 C             1 RES     
     742 C           10.8795    43.2239    30.5917 C             1 RES     
     743 N            9.6782    43.3967    29.7703 N             1 RES     
     744 C           10.0545    43.7393    28.3966 C             1 RES     
     745 C            8.8055    43.9189    27.5206 C             1 RES     
     746 N            9.1724    44.2719    26.1502 N             1 RES     
     747 N           12.1996    41.7830    36.4646 N             1 RES     
     748 H           13.1521    43.0702    35.1106 H             1 RES     
     749 H           13.2027    41.3553    34.6791 H             1 RES     
     750 H           10.6885    43.1163    34.6505 H             1 RES     
     751 H           10.7343    41.3950    34.2190 H             1 RES     
     752 H           12.2640    41.9374    32.4573 H             1 RES     
     753 H            9.8607    43.6436    32.4503 H             1 RES     
     754 H            9.9084    41.9215    32.0205 H             1 RES     
     755 H           11.5073    42.4291    30.1701 H             1 RES     
     756 H           11.4666    44.1509    30.6006 H             1 RES     
     757 H            9.1064    44.1429    30.1648 H             1 RES     
     758 H           10.6799    42.9440    27.9731 H             1 RES     
     759 H           10.6389    44.6680    28.3927 H             1 RES     
     760 H            8.1668    44.7080    27.9347 H             1 RES     
     761 H            8.2214    42.9921    27.5087 H             1 RES     
     762 H            8.3235    44.4197    25.6054 H             1 RES     
     763 H            3.9016    55.9865    21.0634 H             1 RES     
     764 H           11.6062    42.5917    36.9012 H             1 RES     
     765 C           27.3776    35.6515    73.4668 C             1 RES     
     766 C           27.0670    36.4859    72.2151 C             1 RES     
     767 N           25.6238    36.7046    72.0878 N             1 RES     
     768 C           25.3426    37.5056    70.8925 C             1 RES     
     769 C           23.8322    37.7436    70.7552 C             1 RES     
     770 N           23.5501    38.5377    69.5562 N             1 RES     
     771 C           22.1090    38.7729    69.4376 C             1 RES     
     772 C           21.7968    39.6091    68.1874 C             1 RES     
     773 N           20.3590    39.8390    68.0558 N             1 RES     
     774 N           28.8161    35.4283    73.6028 N             1 RES     
     775 H           26.8651    34.6840    73.4103 H             1 RES     
     776 H           27.0122    36.1686    74.3610 H             1 RES     
     777 H           27.4380    35.9572    71.3284 H             1 RES     
     778 H           27.5891    37.4487    72.2790 H             1 RES     
     779 H           25.2905    37.2103    72.9095 H             1 RES     
     780 H           25.7078    36.9811    70.0009 H             1 RES     
     781 H           25.8599    38.4715    70.9537 H             1 RES     
     782 H           23.4682    38.2717    71.6453 H             1 RES     
     783 H           23.3140    36.7780    70.6983 H             1 RES     
     784 H           23.8836    38.0348    68.7345 H             1 RES     
     785 H           21.7445    39.3033    70.3257 H             1 RES     
     786 H           21.5804    37.8133    69.3755 H             1 RES     
     787 H           22.1605    39.0938    67.2906 H             1 RES     
     788 H           22.3111    40.5747    68.2461 H             1 RES     
     789 H           28.9839    34.8342    74.4141 H             1 RES     
     790 C           27.7256    32.4572    71.4808 C             1 RES     
     791 C           26.9607    31.4188    70.9333 C             1 RES     
     792 C           27.4629    30.7016    69.8354 C             1 RES     
     793 C           28.6579    31.0923    69.2079 C             1 RES     
     794 C           29.3948    32.1550    69.7487 C             1 RES     
     795 C           28.9372    32.8382    70.8890 C             1 RES     
     796 C           29.7241    34.0083    71.4064 C             1 RES     
     797 O           30.7559    34.2945    70.7986 O             1 RES     
     798 C           29.0624    30.4208    67.9251 C             1 RES     
     799 O           28.3369    29.5135    67.5182 O             1 RES     
     800 C           25.5699    31.1349    71.4277 C             1 RES     
     801 O           24.9464    30.2367    70.8618 O             1 RES     
     802 Cl          24.8799    32.1162    72.7047 Cl            1 RES     
     803 H           27.3640    32.9866    72.3569 H             1 RES     
     804 H           26.8965    29.8556    69.4399 H             1 RES     
     805 H           30.3249    32.4792    69.2833 H             1 RES     
     806 C           32.6345    22.3726    62.7071 C             1 RES     
     807 C           32.4401    23.8671    62.4106 C             1 RES     
     808 N           32.2900    24.6234    63.6565 N             1 RES     
     809 C           32.1101    26.0476    63.3588 C             1 RES     
     810 C           31.9573    26.8477    64.6601 C             1 RES     
     811 N           31.7697    28.2703    64.3626 N             1 RES     
     812 C           31.6378    29.0304    65.6080 C             1 RES     
     813 C           31.4455    30.5257    65.3134 C             1 RES     
     814 N           31.3021    31.2900    66.5513 N             1 RES     
     815 N           32.7859    21.6092    61.4694 N             1 RES     
     816 H           31.7756    21.9858    63.2680 H             1 RES     
     817 H           33.5272    22.2271    63.3257 H             1 RES     
     818 H           31.5442    23.9980    61.7913 H             1 RES     
     819 H           33.3016    24.2424    61.8444 H             1 RES     
     820 H           33.1340    24.5082    64.2191 H             1 RES     
     821 H           31.2134    26.1866    62.7423 H             1 RES     
     822 H           32.9715    26.4284    62.7956 H             1 RES     
     823 H           32.8560    26.7115    65.2745 H             1 RES     
     824 H           31.0987    26.4644    65.2257 H             1 RES     
     825 H           30.9279    28.3872    63.7995 H             1 RES     
     826 H           32.5370    28.8972    66.2218 H             1 RES     
     827 H           30.7788    28.6584    66.1805 H             1 RES     
     828 H           30.5524    30.6746    64.6952 H             1 RES     
     829 H           32.3047    30.9091    64.7520 H             1 RES     
     830 H           31.1398    32.2698    66.3212 H             1 RES     
     831 H           19.8425    38.8808    67.9466 H             1 RES     
     832 H           31.8750    21.7113    60.8722 H             1 RES     
     833 C           20.8263    44.9217    79.3481 C             1 RES     
     834 C           20.7873    46.4527    79.2307 C             1 RES     
     835 N           19.8074    46.8665    78.2230 N             1 RES     
     836 C           19.7775    48.3290    78.1251 C             1 RES     
     837 C           18.7488    48.7706    77.0745 C             1 RES     
     838 N           18.7243    50.2322    76.9708 N             1 RES     
     839 C           17.7318    50.6482    75.9768 C             1 RES     
     840 C           17.6899    52.1793    75.8596 C             1 RES     
     841 N           16.7092    52.6022    74.8613 N             1 RES     
     842 N           21.8014    44.4988    80.3522 N             1 RES     
     843 H           21.0873    44.4770    78.3806 H             1 RES     
     844 H           19.8378    44.5430    79.6313 H             1 RES     
     845 H           21.7821    46.8178    78.9473 H             1 RES     
     846 H           20.5314    46.8874    80.2049 H             1 RES     
     847 H           18.8830    46.5358    78.5028 H             1 RES     
     848 H           20.7688    48.7012    77.8382 H             1 RES     
     849 H           19.5181    48.7682    79.0966 H             1 RES     
     850 H           17.7570    48.4015    77.3639 H             1 RES     
     851 H           19.0053    48.3280    76.1037 H             1 RES     
     852 H           19.6471    50.5644    76.6928 H             1 RES     
     853 H           16.7393    50.2820    76.2665 H             1 RES     
     854 H           17.9808    50.2146    75.0000 H             1 RES     
     855 H           18.6775    52.5612    75.5755 H             1 RES     
     856 H           17.4300    52.6208    76.8280 H             1 RES     
     857 H           21.8360    43.4802    80.3719 H             1 RES     
     858 C           23.9072    44.6461    77.1799 C             1 RES     
     859 C           24.2996    44.5900    75.8361 C             1 RES     
     860 C           25.5948    45.0006    75.4814 C             1 RES     
     861 C           26.4510    45.5789    76.4336 C             1 RES     
     862 C           26.0303    45.6580    77.7684 C             1 RES     
     863 C           24.7613    45.1879    78.1496 C             1 RES     
     864 C           24.3224    45.3413    79.5778 C             1 RES     
     865 O           25.1250    45.8646    80.3511 O             1 RES     
     866 C           27.7523    46.1778    75.9773 C             1 RES     
     867 O           28.0222    46.0782    74.7805 O             1 RES     
     868 C           23.3251    44.2057    74.7580 C             1 RES     
     869 O           23.7360    44.2268    73.5977 O             1 RES     
     870 Cl          21.6663    43.8261    75.1753 Cl            1 RES     
     871 H           22.9234    44.2887    77.4678 H             1 RES     
     872 H           25.9247    44.9067    74.4445 H             1 RES     
     873 H           26.6733    46.1011    78.5279 H             1 RES     
     874 C           37.3402    45.3108    72.5014 C             1 RES     
     875 C           36.5055    46.4343    73.1341 C             1 RES     
     876 N           35.3362    45.8813    73.8224 N             1 RES     
     877 C           34.5520    46.9636    74.4250 C             1 RES     
     878 C           33.3274    46.3914    75.1528 C             1 RES     
     879 N           32.5391    47.4736    75.7486 N             1 RES     
     880 C           31.3795    46.9208    76.4528 C             1 RES     
     881 C           30.5448    48.0431    77.0880 C             1 RES     
     882 N           29.3792    47.5002    77.7837 N             1 RES     
     883 N           38.5102    45.8529    71.8124 N             1 RES     
     884 H           36.7297    44.7454    71.7876 H             1 RES     
     885 H           37.6760    44.6127    73.2764 H             1 RES     
     886 H           36.1765    47.1251    72.3481 H             1 RES     
     887 H           37.1271    46.9971    73.8417 H             1 RES     
     888 H           35.6523    45.2522    74.5615 H             1 RES     
     889 H           34.2162    47.6569    73.6438 H             1 RES     
     890 H           35.1688    47.5271    75.1365 H             1 RES     
     891 H           33.6639    45.7012    75.9365 H             1 RES     
     892 H           32.7126    45.8241    74.4425 H             1 RES     
     893 H           32.2238    48.1039    75.0120 H             1 RES     
     894 H           31.7148    46.2328    77.2384 H             1 RES     
     895 H           30.7545    46.3546    75.7508 H             1 RES     
     896 H           30.2065    48.7429    76.3149 H             1 RES     
     897 H           31.1576    48.6069    77.8000 H             1 RES     
     898 H           28.8281    48.2702    78.1616 H             1 RES     
     899 H           16.9892    52.2060    73.8808 H             1 RES     
     900 H           38.1769    46.5111    71.0047 H             1 RES     
@<TRIPOS>BOND
       1        1        2 1
       2        1       10 1
       3        1       11 1
       4        1       12 1
       5        2        3 1
       6        2       13 1
       7        2       14 1
       8        3        4 1
       9        3       15 1
      10        4        5 1
      11        4       16 1
      12        4       17 1
      13        5        6 1
      14        5       18 1
      15        5       19 1
      16        6        7 1
      17        6       20 1
      18        7        8 1
      19        7       21 1
      20        7       22 1
      21        8        9 1
      22        8       23 1
      23        8       24 1
      24        9       41 1
      25        9      209 1
      26       10       25 1
      27       10       32 1
      28       26       27 1
      29       26       31 1
      30       26       38 1
      31       27       28 1
      32       27       36 1
      33       28       29 1
      34       28       39 1
      35       29       30 1
      36       29       34 1
      37       30       31 1
      38       30       40 1
      39       31       32 1
      40       32       33 1
      41       34       35 1
      42       34       42 1
      43       36       37 1
      44       36       51 1
      45       43       44 1
      46       43       52 1
      47       43       53 1
      48       43       54 1
      49       44       45 1
      50       44       55 1
      51       44       56 1
      52       45       46 1
      53       45       57 1
      54       46       47 1
      55       46       58 1
      56       46       59 1
      57       47       48 1
      58       47       60 1
      59       47       61 1
      60       48       49 1
      61       48       62 1
      62       49       50 1
      63       49       63 1
      64       49       64 1
      65       50       51 1
      66       50       65 1
      67       50       66 1
      68       51       83 1
      69       52       67 1
      70       52       74 1
      71       68       69 1
      72       68       73 1
      73       68       80 1
      74       69       70 1
      75       69       78 1
      76       70       71 1
      77       70       81 1
      78       71       72 1
      79       71       76 1
      80       72       73 1
      81       72       82 1
      82       73       74 1
      83       74       75 1
      84       76       77 1
      85       76       84 1
      86       78       79 1
      87       78       93 1
      88       85       86 1
      89       85       94 1
      90       85       95 1
      91       85       96 1
      92       86       87 1
      93       86       97 1
      94       86       98 1
      95       87       88 1
      96       87       99 1
      97       88       89 1
      98       88      100 1
      99       88      101 1
     100       89       90 1
     101       89      102 1
     102       89      103 1
     103       90       91 1
     104       90      104 1
     105       91       92 1
     106       91      105 1
     107       91      106 1
     108       92       93 1
     109       92      107 1
     110       92      108 1
     111       93      125 1
     112       94      109 1
     113       94      116 1
     114      110      111 1
     115      110      115 1
     116      110      122 1
     117      111      112 1
     118      111      120 1
     119      112      113 1
     120      112      123 1
     121      113      114 1
     122      113      118 1
     123      114      115 1
     124      114      124 1
     125      115      116 1
     126      116      117 1
     127      118      119 1
     128      118      637 1
     129      120      121 1
     130      120      134 1
     131      126      127 1
     132      126      135 1
     133      126      136 1
     134      126      137 1
     135      127      128 1
     136      127      138 1
     137      127      139 1
     138      128      129 1
     139      128      140 1
     140      129      130 1
     141      129      141 1
     142      129      142 1
     143      130      131 1
     144      130      143 1
     145      130      144 1
     146      131      132 1
     147      131      145 1
     148      132      133 1
     149      132      146 1
     150      132      147 1
     151      133      134 1
     152      133      148 1
     153      133      149 1
     154      134      166 1
     155      135      150 1
     156      135      157 1
     157      151      152 1
     158      151      156 1
     159      151      163 1
     160      152      153 1
     161      152      161 1
     162      153      154 1
     163      153      164 1
     164      154      155 1
     165      154      159 1
     166      155      156 1
     167      155      165 1
     168      156      157 1
     169      157      158 1
     170      159      160 1
     171      159      705 1
     172      161      162 1
     173      161      175 1
     174      167      168 1
     175      167      176 1
     176      167      177 1
     177      167      178 1
     178      168      169 1
     179      168      179 1
     180      168      180 1
     181      169      170 1
     182      169      181 1
     183      170      171 1
     184      170      182 1
     185      170      183 1
     186      171      172 1
     187      171      184 1
     188      171      185 1
     189      172      173 1
     190      172      186 1
     191      173      174 1
     192      173      187 1
     193      173      188 1
     194      174      175 1
     195      174      189 1
     196      174      190 1
     197      175      207 1
     198      176      191 1
     199      176      198 1
     200      192      193 1
     201      192      197 1
     202      192      204 1
     203      193      194 1
     204      193      202 1
     205      194      195 1
     206      194      205 1
     207      195      196 1
     208      195      200 1
     209      196      197 1
     210      196      206 1
     211      197      198 1
     212      198      199 1
     213      200      201 1
     214      200      208 1
     215      202      203 1
     216      202      210 1
     217      211      212 1
     218      211      220 1
     219      211      221 1
     220      211      222 1
     221      212      213 1
     222      212      223 1
     223      212      224 1
     224      213      214 1
     225      213      225 1
     226      214      215 1
     227      214      226 1
     228      214      227 1
     229      215      216 1
     230      215      228 1
     231      215      229 1
     232      216      217 1
     233      216      230 1
     234      217      218 1
     235      217      231 1
     236      217      232 1
     237      218      219 1
     238      218      233 1
     239      218      234 1
     240      219      251 1
     241      219      417 1
     242      220      235 1
     243      220      242 1
     244      236      237 1
     245      236      241 1
     246      236      248 1
     247      237      238 1
     248      237      246 1
     249      238      239 1
     250      238      249 1
     251      239      240 1
     252      239      244 1
     253      240      241 1
     254      240      250 1
     255      241      242 1
     256      242      243 1
     257      244      245 1
     258      244      773 1
     259      246      247 1
     260      246      260 1
     261      252      253 1
     262      252      261 1
     263      252      262 1
     264      252      263 1
     265      253      254 1
     266      253      264 1
     267      253      265 1
     268      254      255 1
     269      254      266 1
     270      255      256 1
     271      255      267 1
     272      255      268 1
     273      256      257 1
     274      256      269 1
     275      256      270 1
     276      257      258 1
     277      257      271 1
     278      258      259 1
     279      258      272 1
     280      258      273 1
     281      259      260 1
     282      259      274 1
     283      259      275 1
     284      260      292 1
     285      261      276 1
     286      261      283 1
     287      277      278 1
     288      277      282 1
     289      277      289 1
     290      278      279 1
     291      278      287 1
     292      279      280 1
     293      279      290 1
     294      280      281 1
     295      280      285 1
     296      281      282 1
     297      281      291 1
     298      282      283 1
     299      283      284 1
     300      285      286 1
     301      285      841 1
     302      287      288 1
     303      287      301 1
     304      293      294 1
     305      293      302 1
     306      293      303 1
     307      293      304 1
     308      294      295 1
     309      294      305 1
     310      294      306 1
     311      295      296 1
     312      295      307 1
     313      296      297 1
     314      296      308 1
     315      296      309 1
     316      297      298 1
     317      297      310 1
     318      297      311 1
     319      298      299 1
     320      298      312 1
     321      299      300 1
     322      299      313 1
     323      299      314 1
     324      300      301 1
     325      300      315 1
     326      300      316 1
     327      301      333 1
     328      302      317 1
     329      302      324 1
     330      318      319 1
     331      318      323 1
     332      318      330 1
     333      319      320 1
     334      319      328 1
     335      320      321 1
     336      320      331 1
     337      321      322 1
     338      321      326 1
     339      322      323 1
     340      322      332 1
     341      323      324 1
     342      324      325 1
     343      326      327 1
     344      326      679 1
     345      328      329 1
     346      328      342 1
     347      334      335 1
     348      334      343 1
     349      334      344 1
     350      334      345 1
     351      335      336 1
     352      335      346 1
     353      335      347 1
     354      336      337 1
     355      336      348 1
     356      337      338 1
     357      337      349 1
     358      337      350 1
     359      338      339 1
     360      338      351 1
     361      338      352 1
     362      339      340 1
     363      339      353 1
     364      340      341 1
     365      340      354 1
     366      340      355 1
     367      341      342 1
     368      341      356 1
     369      341      357 1
     370      342      374 1
     371      343      358 1
     372      343      365 1
     373      359      360 1
     374      359      364 1
     375      359      371 1
     376      360      361 1
     377      360      369 1
     378      361      362 1
     379      361      372 1
     380      362      363 1
     381      362      367 1
     382      363      364 1
     383      363      373 1
     384      364      365 1
     385      365      366 1
     386      367      368 1
     387      367      747 1
     388      369      370 1
     389      369      383 1
     390      375      376 1
     391      375      384 1
     392      375      385 1
     393      375      386 1
     394      376      377 1
     395      376      387 1
     396      376      388 1
     397      377      378 1
     398      377      389 1
     399      378      379 1
     400      378      390 1
     401      378      391 1
     402      379      380 1
     403      379      392 1
     404      379      393 1
     405      380      381 1
     406      380      394 1
     407      381      382 1
     408      381      395 1
     409      381      396 1
     410      382      383 1
     411      382      397 1
     412      382      398 1
     413      383      415 1
     414      384      399 1
     415      384      406 1
     416      400      401 1
     417      400      405 1
     418      400      412 1
     419      401      402 1
     420      401      410 1
     421      402      403 1
     422      402      413 1
     423      403      404 1
     424      403      408 1
     425      404      405 1
     426      404      414 1
     427      405      406 1
     428      406      407 1
     429      408      409 1
     430      408      416 1
     431      410      411 1
     432      410      418 1
     433      419      420 1
     434      419      428 1
     435      419      429 1
     436      419      430 1
     437      420      421 1
     438      420      431 1
     439      420      432 1
     440      421      422 1
     441      421      433 1
     442      422      423 1
     443      422      434 1
     444      422      435 1
     445      423      424 1
     446      423      436 1
     447      423      437 1
     448      424      425 1
     449      424      438 1
     450      425      426 1
     451      425      439 1
     452      425      440 1
     453      426      427 1
     454      426      441 1
     455      426      442 1
     456      427      459 1
     457      427      627 1
     458      428      443 1
     459      428      450 1
     460      444      445 1
     461      444      449 1
     462      444      456 1
     463      445      446 1
     464      445      454 1
     465      446      447 1
     466      446      457 1
     467      447      448 1
     468      447      452 1
     469      448      449 1
     470      448      458 1
     471      449      450 1
     472      450      451 1
     473      452      453 1
     474      452      815 1
     475      454      455 1
     476      454      468 1
     477      460      461 1
     478      460      469 1
     479      460      470 1
     480      460      471 1
     481      461      462 1
     482      461      472 1
     483      461      473 1
     484      462      463 1
     485      462      474 1
     486      463      464 1
     487      463      475 1
     488      463      476 1
     489      464      465 1
     490      464      477 1
     491      464      478 1
     492      465      466 1
     493      465      479 1
     494      466      467 1
     495      466      480 1
     496      466      481 1
     497      467      468 1
     498      467      482 1
     499      467      483 1
     500      468      500 1
     501      469      484 1
     502      469      491 1
     503      485      486 1
     504      485      490 1
     505      485      497 1
     506      486      487 1
     507      486      495 1
     508      487      488 1
     509      487      498 1
     510      488      489 1
     511      488      493 1
     512      489      490 1
     513      489      499 1
     514      490      491 1
     515      491      492 1
     516      493      494 1
     517      493      883 1
     518      495      496 1
     519      495      509 1
     520      501      502 1
     521      501      510 1
     522      501      511 1
     523      501      512 1
     524      502      503 1
     525      502      513 1
     526      502      514 1
     527      503      504 1
     528      503      515 1
     529      504      505 1
     530      504      516 1
     531      504      517 1
     532      505      506 1
     533      505      518 1
     534      505      519 1
     535      506      507 1
     536      506      520 1
     537      507      508 1
     538      507      521 1
     539      507      522 1
     540      508      509 1
     541      508      523 1
     542      508      524 1
     543      509      541 1
     544      510      525 1
     545      510      532 1
     546      526      527 1
     547      526      531 1
     548      526      538 1
     549      527      528 1
     550      527      536 1
     551      528      529 1
     552      528      539 1
     553      529      530 1
     554      529      534 1
     555      530      531 1
     556      530      540 1
     557      531      532 1
     558      532      533 1
     559      534      535 1
     560      534      542 1
     561      536      537 1
     562      536      551 1
     563      543      544 1
     564      543      552 1
     565      543      553 1
     566      543      554 1
     567      544      545 1
     568      544      555 1
     569      544      556 1
     570      545      546 1
     571      545      557 1
     572      546      547 1
     573      546      558 1
     574      546      559 1
     575      547      548 1
     576      547      560 1
     577      547      561 1
     578      548      549 1
     579      548      562 1
     580      549      550 1
     581      549      563 1
     582      549      564 1
     583      550      551 1
     584      550      565 1
     585      550      566 1
     586      551      583 1
     587      552      567 1
     588      552      574 1
     589      568      569 1
     590      568      573 1
     591      568      580 1
     592      569      570 1
     593      569      578 1
     594      570      571 1
     595      570      581 1
     596      571      572 1
     597      571      576 1
     598      572      573 1
     599      572      582 1
     600      573      574 1
     601      574      575 1
     602      576      577 1
     603      576      584 1
     604      578      579 1
     605      578      593 1
     606      585      586 1
     607      585      594 1
     608      585      595 1
     609      585      596 1
     610      586      587 1
     611      586      597 1
     612      586      598 1
     613      587      588 1
     614      587      599 1
     615      588      589 1
     616      588      600 1
     617      588      601 1
     618      589      590 1
     619      589      602 1
     620      589      603 1
     621      590      591 1
     622      590      604 1
     623      591      592 1
     624      591      605 1
     625      591      606 1
     626      592      593 1
     627      592      607 1
     628      592      608 1
     629      593      625 1
     630      594      609 1
     631      594      616 1
     632      610      611 1
     633      610      615 1
     634      610      622 1
     635      611      612 1
     636      611      620 1
     637      612      613 1
     638      612      623 1
     639      613      614 1
     640      613      618 1
     641      614      615 1
     642      614      624 1
     643      615      616 1
     644      616      617 1
     645      618      619 1
     646      618      626 1
     647      620      621 1
     648      620      628 1
     649      629      630 1
     650      629      638 1
     651      629      639 1
     652      629      640 1
     653      630      631 1
     654      630      641 1
     655      630      642 1
     656      631      632 1
     657      631      643 1
     658      632      633 1
     659      632      644 1
     660      632      645 1
     661      633      634 1
     662      633      646 1
     663      633      647 1
     664      634      635 1
     665      634      648 1
     666      635      636 1
     667      635      649 1
     668      635      650 1
     669      636      637 1
     670      636      651 1
     671      636      652 1
     672      637      695 1
     673      638      653 1
     674      638      660 1
     675      654      655 1
     676      654      659 1
     677      654      667 1
     678      655      656 1
     679      655      664 1
     680      656      657 1
     681      656      668 1
     682      657      658 1
     683      657      662 1
     684      658      659 1
     685      658      669 1
     686      659      660 1
     687      660      661 1
     688      662      663 1
     689      662      678 1
     690      664      665 1
     691      664      666 1
     692      670      671 1
     693      670      679 1
     694      670      680 1
     695      670      681 1
     696      671      672 1
     697      671      682 1
     698      671      683 1
     699      672      673 1
     700      672      684 1
     701      673      674 1
     702      673      685 1
     703      673      686 1
     704      674      675 1
     705      674      687 1
     706      674      688 1
     707      675      676 1
     708      675      689 1
     709      676      677 1
     710      676      690 1
     711      676      691 1
     712      677      678 1
     713      677      692 1
     714      677      693 1
     715      678      694 1
     716      679      696 1
     717      697      698 1
     718      697      706 1
     719      697      707 1
     720      697      708 1
     721      698      699 1
     722      698      709 1
     723      698      710 1
     724      699      700 1
     725      699      711 1
     726      700      701 1
     727      700      712 1
     728      700      713 1
     729      701      702 1
     730      701      714 1
     731      701      715 1
     732      702      703 1
     733      702      716 1
     734      703      704 1
     735      703      717 1
     736      703      718 1
     737      704      705 1
     738      704      719 1
     739      704      720 1
     740      705      763 1
     741      706      721 1
     742      706      728 1
     743      722      723 1
     744      722      727 1
     745      722      735 1
     746      723      724 1
     747      723      732 1
     748      724      725 1
     749      724      736 1
     750      725      726 1
     751      725      730 1
     752      726      727 1
     753      726      737 1
     754      727      728 1
     755      728      729 1
     756      730      731 1
     757      730      746 1
     758      732      733 1
     759      732      734 1
     760      738      739 1
     761      738      747 1
     762      738      748 1
     763      738      749 1
     764      739      740 1
     765      739      750 1
     766      739      751 1
     767      740      741 1
     768      740      752 1
     769      741      742 1
     770      741      753 1
     771      741      754 1
     772      742      743 1
     773      742      755 1
     774      742      756 1
     775      743      744 1
     776      743      757 1
     777      744      745 1
     778      744      758 1
     779      744      759 1
     780      745      746 1
     781      745      760 1
     782      745      761 1
     783      746      762 1
     784      747      764 1
     785      765      766 1
     786      765      774 1
     787      765      775 1
     788      765      776 1
     789      766      767 1
     790      766      777 1
     791      766      778 1
     792      767      768 1
     793      767      779 1
     794      768      769 1
     795      768      780 1
     796      768      781 1
     797      769      770 1
     798      769      782 1
     799      769      783 1
     800      770      771 1
     801      770      784 1
     802      771      772 1
     803      771      785 1
     804      771      786 1
     805      772      773 1
     806      772      787 1
     807      772      788 1
     808      773      831 1
     809      774      789 1
     810      774      796 1
     811      790      791 1
     812      790      795 1
     813      790      803 1
     814      791      792 1
     815      791      800 1
     816      792      793 1
     817      792      804 1
     818      793      794 1
     819      793      798 1
     820      794      795 1
     821      794      805 1
     822      795      796 1
     823      796      797 1
     824      798      799 1
     825      798      814 1
     826      800      801 1
     827      800      802 1
     828      806      807 1
     829      806      815 1
     830      806      816 1
     831      806      817 1
     832      807      808 1
     833      807      818 1
     834      807      819 1
     835      808      809 1
     836      808      820 1
     837      809      810 1
     838      809      821 1
     839      809      822 1
     840      810      811 1
     841      810      823 1
     842      810      824 1
     843      811      812 1
     844      811      825 1
     845      812      813 1
     846      812      826 1
     847      812      827 1
     848      813      814 1
     849      813      828 1
     850      813      829 1
     851      814      830 1
     852      815      832 1
     853      833      834 1
     854      833      842 1
     855      833      843 1
     856      833      844 1
     857      834      835 1
     858      834      845 1
     859      834      846 1
     860      835      836 1
     861      835      847 1
     862      836      837 1
     863      836      848 1
     864      836      849 1
     865      837      838 1
     866      837      850 1
     867      837      851 1
     868      838      839 1
     869      838      852 1
     870      839      840 1
     871      839      853 1
     872      839      854 1
     873      840      841 1
     874      840      855 1
     875      840      856 1
     876      841      899 1
     877      842      857 1
     878      842      864 1
     879      858      859 1
     880      858      863 1
     881      858      871 1
     882      859      860 1
     883      859      868 1
     884      860      861 1
     885      860      872 1
     886      861      862 1
     887      861      866 1
     888      862      863 1
     889      862      873 1
     890      863      864 1
     891      864      865 1
     892      866      867 1
     893      866      882 1
     894      868      869 1
     895      868      870 1
     896      874      875 1
     897      874      883 1
     898      874      884 1
     899      874      885 1
     900      875      876 1
     901      875      886 1
     902      875      887 1
     903      876      877 1
     904      876      888 1
     905      877      878 1
     906      877      889 1
     907      877      890 1
     908      878      879 1
     909      878      891 1
     910      878      892 1
     911      879      880 1
     912      879      893 1
     913      880      881 1
     914      880      894 1
     915      880      895 1
     916      881      882 1
     917      881      896 1
     918      881      897 1
     919      882      898 1
     920      883      900 1
@<TRIPOS>SUBSTRUCTURE
       1 RES             1 RESIDUE    0 **** ROOT      0
