@<TRIPOS>MOLECULE
RES
900 920 1 0 1
SMALL
NO_CHARGES
@<TRIPOS>CRYSIN
   78.3572    73.3257    84.7495    90.0000    90.0000    90.0000 1 1
@<TRIPOS>ATOM
       1 N           11.0931   111.3940    19.0792 N             1 RES     
       2 C           12.9067   110.8938    19.0793 C             1 RES     
       3 C           14.5951   111.6650    19.0793 C             1 RES     
       4 H           12.9558   110.2780    19.9529 H             1 RES     
       5 H           12.9177   110.7561    18.0182 H             1 RES     
       6 N           16.2627   110.6853    19.0793 N             1 RES     
       7 H           14.6268   112.2819    18.2056 H             1 RES     
       8 H           14.6165   112.0819    20.0645 H             1 RES     
       9 C           18.0554   111.9360    19.0793 C             1 RES     
      10 H           16.2859   110.0911    19.9203 H             1 RES     
      11 C           19.5562   110.5394    19.0793 C             1 RES     
      12 H           18.0987   112.5522    18.2057 H             1 RES     
      13 H           18.1033   112.6185    19.9019 H             1 RES     
      14 N           21.4114   112.0610    19.0794 N             1 RES     
      15 H           19.5369   109.9219    19.9530 H             1 RES     
      16 H           19.5338   109.8219    18.2858 H             1 RES     
      17 C           23.0164   110.5394    19.0794 C             1 RES     
      18 H           21.4328   112.6553    18.2384 H             1 RES     
      19 C           24.4130   112.0193    19.0795 C             1 RES     
      20 H           23.0336   109.9218    19.9531 H             1 RES     
      21 H           23.0378   109.7731    18.3330 H             1 RES     
      22 N           26.0389   110.4977    19.0795 N             1 RES     
      23 H           24.3939   112.6368    18.2058 H             1 RES     
      24 H           24.3893   112.7835    19.8280 H             1 RES     
      25 H           25.9005   109.8474    18.2929 H             1 RES     
      26 C           30.2888   107.4172    19.0359 C             1 RES     
      27 C           30.3340   109.3748    18.9654 C             1 RES     
      28 H           31.9462   111.3424    18.8387 H             1 RES     
      29 O           29.1129   111.5508    18.9327 O             1 RES     
      30 C           31.7543   105.9021    19.0368 C             1 RES     
      31 C           31.9591   110.2731    18.8758 C             1 RES     
      32 C           31.7383   104.2980    19.0938 C             1 RES     
      33 C           29.0458   110.4480    18.9738 C             1 RES     
      34 C           33.6269   109.3991    18.8471 C             1 RES     
      35 H           29.2931   107.0286    19.0851 H             1 RES     
      36 C           33.6594   107.1895    18.9236 C             1 RES     
      37 O           31.6697   103.1328    19.1372 O             1 RES     
      38 C           34.8757   110.2440    18.7728 C             1 RES     
      39 O           34.6086   111.3131    18.7447 O             1 RES     
      40 H           34.6076   106.6941    18.9071 H             1 RES     
      41 H           10.0000   111.4246    19.0455 H             1 RES     
      42 N           36.9979   110.1925    18.6988 N             1 RES     
      43 C           37.5708   108.4347    18.3507 C             1 RES     
      44 C           37.0757   106.9478    17.3560 C             1 RES     
      45 H           38.5665   108.6032    17.9973 H             1 RES     
      46 H           37.1038   108.0567    19.2362 H             1 RES     
      47 N           38.0346   105.2685    17.3179 N             1 RES     
      48 H           36.0860   106.7037    17.6813 H             1 RES     
      49 H           37.2716   107.3041    16.3663 H             1 RES     
      50 C           37.1499   103.7420    16.0275 C             1 RES     
      51 H           38.9922   105.4532    16.9866 H             1 RES     
      52 C           38.4409   102.1685    16.2724 C             1 RES     
      53 H           36.1618   103.4870    16.3492 H             1 RES     
      54 H           37.0380   104.0519    15.0095 H             1 RES     
      55 N           37.3364   100.6163    14.8137 N             1 RES     
      56 H           39.4322   102.4009    15.9432 H             1 RES     
      57 H           38.6000   101.8401    17.2783 H             1 RES     
      58 C           38.7404    98.9301    15.0908 C             1 RES     
      59 H           36.3826   100.3899    15.1297 H             1 RES     
      60 C           37.6309    97.8021    13.8113 C             1 RES     
      61 H           39.7350    99.1283    14.7492 H             1 RES     
      62 H           38.9698    98.5705    16.0721 H             1 RES     
      63 N           39.0368    96.0963    14.0813 N             1 RES     
      64 H           36.6364    97.6056    14.1537 H             1 RES     
      65 H           37.4043    98.1643    12.8304 H             1 RES     
      66 H           39.1337    95.8870    15.0851 H             1 RES     
      67 C           41.9419    91.7317    14.3342 C             1 RES     
      68 C           40.2795    91.9030    13.3112 C             1 RES     
      69 H           38.7136    90.5901    11.7910 H             1 RES     
      70 O           38.3467    93.2981    12.5733 O             1 RES     
      71 C           43.3289    90.1772    14.6547 C             1 RES     
      72 C           39.6241    90.4610    12.3380 C             1 RES     
      73 C           44.6926    90.0170    15.4863 C             1 RES     
      74 C           39.2804    93.2411    13.1626 C             1 RES     
      75 C           40.4794    88.7849    12.2645 C             1 RES     
      76 H           42.2058    92.6329    14.8472 H             1 RES     
      77 C           42.3613    88.5125    13.3930 C             1 RES     
      78 O           45.6793    89.9545    16.1083 O             1 RES     
      79 C           39.8442    87.6937    11.4369 C             1 RES     
      80 O           38.9168    88.0637    10.9699 O             1 RES     
      81 H           42.8463    87.5597    13.3505 H             1 RES     
      82 H           36.8593   111.2080    19.0813 H             1 RES     
      83 N           40.0301    85.6769    10.7971 N             1 RES     
      84 C           41.3502    84.8129    11.8219 C             1 RES     
      85 C           41.9976    84.7673    13.5610 C             1 RES     
      86 H           41.1022    83.7845    11.6619 H             1 RES     
      87 H           42.1100    85.4972    11.5066 H             1 RES     
      88 N           43.4558    83.6541    14.1734 N             1 RES     
      89 H           42.2935    85.7717    13.7815 H             1 RES     
      90 H           41.1751    84.2996    14.0606 H             1 RES     
      91 C           43.9402    83.8706    16.2940 C             1 RES     
      92 H           43.2034    82.6706    14.0007 H             1 RES     
      93 C           45.4947    82.5530    16.5184 C             1 RES     
      94 H           44.2433    84.8709    16.5227 H             1 RES     
      95 H           43.1142    83.6760    16.9455 H             1 RES     
      96 N           45.8890    82.9163    18.8571 N             1 RES     
      97 H           45.2065    81.5444    16.3067 H             1 RES     
      98 H           46.3335    82.6971    15.8700 H             1 RES     
      99 C           47.5646    81.4900    19.0794 C             1 RES     
     100 H           46.1681    83.8862    19.0630 H             1 RES     
     101 C           47.7042    81.9686    21.0522 C             1 RES     
     102 H           47.2983    80.4702    18.8946 H             1 RES     
     103 H           48.4220    81.5565    18.4429 H             1 RES     
     104 N           49.3922    80.5359    21.2900 N             1 RES     
     105 H           47.9694    82.9890    21.2356 H             1 RES     
     106 H           46.8450    81.9000    21.6862 H             1 RES     
     107 H           50.1256    80.7519    20.5998 H             1 RES     
     108 C           53.4113    77.3727    22.4708 C             1 RES     
     109 C           52.5636    78.6107    23.7309 C             1 RES     
     110 H           52.6853    79.4145    26.1446 H             1 RES     
     111 O           50.8313    80.3443    24.2007 O             1 RES     
     112 C           54.9998    75.9925    22.5942 C             1 RES     
     113 C           53.1716    78.7277    25.4838 C             1 RES     
     114 C           55.7074    74.9720    21.5770 C             1 RES     
     115 C           51.2830    79.6586    23.4604 C             1 RES     
     116 C           54.5989    77.7003    26.1571 C             1 RES     
     117 CL          56.4669    74.6067    22.4147 CL            1 RES     
     118 H           52.9664    77.4044    21.4982 H             1 RES     
     119 C           55.6076    76.2793    24.7960 C             1 RES     
     120 O           56.1861    74.2468    20.7965 O             1 RES     
     121 C           54.9969    77.8889    27.6010 C             1 RES     
     122 O           54.3527    78.6471    28.0756 O             1 RES     
     123 H           56.4184    75.6961    25.1797 H             1 RES     
     124 H           39.3837    86.0559    10.0000 H             1 RES     
     125 N           56.3387    77.2593    29.1225 N             1 RES     
     126 C           57.7338    76.2584    28.3535 C             1 RES     
     127 C           58.7822    76.2222    26.8222 C             1 RES     
     128 H           58.4795    76.3131    29.1188 H             1 RES     
     129 H           57.0576    75.5257    27.9651 H             1 RES     
     130 N           60.1701    74.9255    26.4578 N             1 RES     
     131 H           58.0938    76.1398    26.0072 H             1 RES     
     132 H           59.3741    77.1007    26.9732 H             1 RES     
     133 C           61.1959    75.1998    24.5472 C             1 RES     
     134 H           60.8711    74.9856    27.2100 H             1 RES     
     135 C           62.5491    73.6599    24.5586 C             1 RES     
     136 H           60.5159    75.1129    23.7256 H             1 RES     
     137 H           61.6438    76.1649    24.4345 H             1 RES     
     138 N           63.5647    74.1085    22.4316 N             1 RES     
     139 H           63.2465    73.7375    25.3665 H             1 RES     
     140 H           62.1460    72.6777    24.6918 H             1 RES     
     141 C           65.0176    72.4413    22.4623 C             1 RES     
     142 H           62.8955    74.0327    21.6523 H             1 RES     
     143 C           65.7145    73.0212    20.6406 C             1 RES     
     144 H           65.7411    72.5060    23.2481 H             1 RES     
     145 H           64.6872    71.4363    22.6221 H             1 RES     
     146 N           67.1823    71.3467    20.6587 N             1 RES     
     147 H           64.9898    72.9571    19.8560 H             1 RES     
     148 H           66.0452    74.0268    20.4845 H             1 RES     
     149 H           66.6875    70.4581    20.8209 H             1 RES     
     150 C           70.8083    67.5932    20.0953 C             1 RES     
     151 C           70.3971    68.9532    18.7460 C             1 RES     
     152 H           71.0641    69.7352    16.4157 H             1 RES     
     153 O           69.0637    70.9397    18.0366 O             1 RES     
     154 C           72.1610    65.9805    20.2066 C             1 RES     
     155 C           71.3146    68.9783    17.1293 C             1 RES     
     156 C           72.5124    64.8582    21.2993 C             1 RES     
     157 C           69.2667    70.1891    18.8226 C             1 RES     
     158 C           72.6619    67.7410    16.6822 C             1 RES     
     159 CL          73.3417    64.3804    20.5950 CL            1 RES     
     160 H           70.2096    67.6917    20.9766 H             1 RES     
     161 C           73.1836    66.1747    18.1533 C             1 RES     
     162 O           72.7284    64.0643    22.1283 O             1 RES     
     163 C           73.3320    67.8689    15.3356 C             1 RES     
     164 O           72.9063    68.7206    14.7801 O             1 RES     
     165 H           73.9492    65.4722    17.8982 H             1 RES     
     166 H           55.5301    77.6464    29.7496 H             1 RES     
     167 N           74.8067    67.0404    14.0509 N             1 RES     
     168 C           75.3376    65.3593    14.7076 C             1 RES     
     169 C           74.6179    63.8671    15.5448 C             1 RES     
     170 H           75.7767    64.9211    13.8359 H             1 RES     
     171 H           75.6751    65.7750    15.6341 H             1 RES     
     172 N           75.6162    62.2907    16.0539 N             1 RES     
     173 H           74.1795    64.2317    16.4502 H             1 RES     
     174 H           74.0216    63.4693    14.7504 H             1 RES     
     175 C           74.4282    60.7317    17.0216 C             1 RES     
     176 H           76.0397    61.8907    15.2045 H             1 RES     
     177 C           75.8320    59.2827    17.3858 C             1 RES     
     178 H           73.9908    61.0858    17.9316 H             1 RES     
     179 H           73.6027    60.3920    16.4317 H             1 RES     
     180 N           74.3795    57.6828    18.4286 N             1 RES     
     181 H           76.2712    58.9067    16.4854 H             1 RES     
     182 H           76.6868    59.5853    17.9539 H             1 RES     
     183 C           75.9082    56.1315    18.8131 C             1 RES     
     184 H           73.9568    58.0421    19.2965 H             1 RES     
     185 C           74.4865    54.9467    19.6591 C             1 RES     
     186 H           76.3483    55.7222    17.9277 H             1 RES     
     187 H           76.8029    56.3721    19.3482 H             1 RES     
     188 N           76.0157    53.3764    20.0521 N             1 RES     
     189 H           74.0465    55.3577    20.5436 H             1 RES     
     190 H           73.5934    54.7073    19.1207 H             1 RES     
     191 H           76.8007    53.7858    20.5784 H             1 RES     
     192 C           79.1411    49.3424    21.2820 C             1 RES     
     193 C           77.2342    49.4454    21.7207 C             1 RES     
     194 H           75.3628    48.1448    22.8578 H             1 RES     
     195 O           75.0779    50.6989    21.6433 O             1 RES     
     196 C           80.6602    47.9182    21.6093 C             1 RES     
     197 C           76.4054    48.0549    22.6349 C             1 RES     
     198 C           82.2233    47.8150    21.2591 C             1 RES     
     199 C           76.1509    50.6783    21.3777 C             1 RES     
     200 C           77.3054    46.4963    23.1891 C             1 RES     
     201 CL          82.3059    46.7481    21.7757 CL            1 RES     
     202 H           79.4911    50.2062    20.7565 H             1 RES     
     203 C           79.4602    46.3054    22.7310 C             1 RES     
     204 O           83.3572    47.7911    20.9795 O             1 RES     
     205 C           76.5179    45.4392    23.9247 C             1 RES     
     206 O           75.4681    45.7568    24.0346 O             1 RES     
     207 H           79.9705    45.4194    23.0464 H             1 RES     
     208 H           74.7590    68.0514    13.6357 H             1 RES     
     209 H           10.9606   112.2853    18.4588 H             1 RES     
     210 H           76.5753    44.4578    24.4047 H             1 RES     
     211 N           11.0931   111.3940    49.0792 N             1 RES     
     212 C           12.9067   110.8938    49.0793 C             1 RES     
     213 C           14.5951   111.6650    49.0793 C             1 RES     
     214 H           12.9558   110.2780    49.9529 H             1 RES     
     215 H           12.9177   110.7561    48.0182 H             1 RES     
     216 N           16.2627   110.6853    49.0793 N             1 RES     
     217 H           14.6268   112.2819    48.2056 H             1 RES     
     218 H           14.6165   112.0819    50.0645 H             1 RES     
     219 C           18.0554   111.9360    49.0793 C             1 RES     
     220 H           16.2859   110.0911    49.9203 H             1 RES     
     221 C           19.5562   110.5394    49.0793 C             1 RES     
     222 H           18.0987   112.5522    48.2057 H             1 RES     
     223 H           18.1033   112.6185    49.9019 H             1 RES     
     224 N           21.4114   112.0610    49.0794 N             1 RES     
     225 H           19.5369   109.9219    49.9530 H             1 RES     
     226 H           19.5338   109.8219    48.2858 H             1 RES     
     227 C           23.0164   110.5394    49.0794 C             1 RES     
     228 H           21.4328   112.6553    48.2384 H             1 RES     
     229 C           24.4130   112.0193    49.0795 C             1 RES     
     230 H           23.0336   109.9218    49.9531 H             1 RES     
     231 H           23.0378   109.7731    48.3330 H             1 RES     
     232 N           26.0389   110.4977    49.0795 N             1 RES     
     233 H           24.3939   112.6368    48.2058 H             1 RES     
     234 H           24.3893   112.7835    49.8280 H             1 RES     
     235 H           25.9005   109.8474    48.2929 H             1 RES     
     236 C           30.2888   107.4172    49.0359 C             1 RES     
     237 C           30.3340   109.3748    48.9654 C             1 RES     
     238 H           31.9462   111.3424    48.8387 H             1 RES     
     239 O           29.1129   111.5508    48.9327 O             1 RES     
     240 C           31.7543   105.9021    49.0368 C             1 RES     
     241 C           31.9591   110.2731    48.8758 C             1 RES     
     242 C           31.7383   104.2980    49.0938 C             1 RES     
     243 C           29.0458   110.4480    48.9738 C             1 RES     
     244 C           33.6269   109.3991    48.8471 C             1 RES     
     245 H           29.2931   107.0286    49.0851 H             1 RES     
     246 C           33.6594   107.1895    48.9236 C             1 RES     
     247 O           31.6697   103.1328    49.1372 O             1 RES     
     248 C           34.8757   110.2440    48.7728 C             1 RES     
     249 O           34.6086   111.3131    48.7447 O             1 RES     
     250 H           34.6076   106.6941    48.9071 H             1 RES     
     251 H           10.0000   111.4246    49.0455 H             1 RES     
     252 N           36.9979   110.1925    48.6988 N             1 RES     
     253 C           37.5708   108.4347    48.3507 C             1 RES     
     254 C           37.0757   106.9478    47.3560 C             1 RES     
     255 H           38.5665   108.6032    47.9973 H             1 RES     
     256 H           37.1038   108.0567    49.2362 H             1 RES     
     257 N           38.0346   105.2685    47.3179 N             1 RES     
     258 H           36.0860   106.7037    47.6813 H             1 RES     
     259 H           37.2716   107.3041    46.3663 H             1 RES     
     260 C           37.1499   103.7420    46.0275 C             1 RES     
     261 H           38.9922   105.4532    46.9866 H             1 RES     
     262 C           38.4409   102.1685    46.2724 C             1 RES     
     263 H           36.1618   103.4870    46.3492 H             1 RES     
     264 H           37.0380   104.0519    45.0095 H             1 RES     
     265 N           37.3364   100.6163    44.8137 N             1 RES     
     266 H           39.4322   102.4009    45.9432 H             1 RES     
     267 H           38.6000   101.8401    47.2783 H             1 RES     
     268 C           38.7404    98.9301    45.0908 C             1 RES     
     269 H           36.3826   100.3899    45.1297 H             1 RES     
     270 C           37.6309    97.8021    43.8113 C             1 RES     
     271 H           39.7350    99.1283    44.7492 H             1 RES     
     272 H           38.9698    98.5705    46.0721 H             1 RES     
     273 N           39.0368    96.0963    44.0813 N             1 RES     
     274 H           36.6364    97.6056    44.1537 H             1 RES     
     275 H           37.4043    98.1643    42.8304 H             1 RES     
     276 H           39.1337    95.8870    45.0851 H             1 RES     
     277 C           41.9419    91.7317    44.3342 C             1 RES     
     278 C           40.2795    91.9030    43.3112 C             1 RES     
     279 H           38.7136    90.5901    41.7910 H             1 RES     
     280 O           38.3467    93.2981    42.5733 O             1 RES     
     281 C           43.3289    90.1772    44.6547 C             1 RES     
     282 C           39.6241    90.4610    42.3380 C             1 RES     
     283 C           44.6926    90.0170    45.4863 C             1 RES     
     284 C           39.2804    93.2411    43.1626 C             1 RES     
     285 C           40.4794    88.7849    42.2645 C             1 RES     
     286 H           42.2058    92.6329    44.8472 H             1 RES     
     287 C           42.3613    88.5125    43.3930 C             1 RES     
     288 O           45.6793    89.9545    46.1083 O             1 RES     
     289 C           39.8442    87.6937    41.4369 C             1 RES     
     290 O           38.9168    88.0637    40.9699 O             1 RES     
     291 H           42.8463    87.5597    43.3505 H             1 RES     
     292 H           36.8593   111.2080    49.0813 H             1 RES     
     293 N           40.0301    85.6769    40.7971 N             1 RES     
     294 C           41.3502    84.8129    41.8219 C             1 RES     
     295 C           41.9976    84.7673    43.5610 C             1 RES     
     296 H           41.1022    83.7845    41.6619 H             1 RES     
     297 H           42.1100    85.4972    41.5066 H             1 RES     
     298 N           43.4558    83.6541    44.1734 N             1 RES     
     299 H           42.2935    85.7717    43.7815 H             1 RES     
     300 H           41.1751    84.2996    44.0606 H             1 RES     
     301 C           43.9402    83.8706    46.2940 C             1 RES     
     302 H           43.2034    82.6706    44.0007 H             1 RES     
     303 C           45.4947    82.5530    46.5184 C             1 RES     
     304 H           44.2433    84.8709    46.5227 H             1 RES     
     305 H           43.1142    83.6760    46.9455 H             1 RES     
     306 N           45.8890    82.9163    48.8571 N             1 RES     
     307 H           45.2065    81.5444    46.3067 H             1 RES     
     308 H           46.3335    82.6971    45.8700 H             1 RES     
     309 C           47.5646    81.4900    49.0794 C             1 RES     
     310 H           46.1681    83.8862    49.0630 H             1 RES     
     311 C           47.7042    81.9686    51.0522 C             1 RES     
     312 H           47.2983    80.4702    48.8946 H             1 RES     
     313 H           48.4220    81.5565    48.4429 H             1 RES     
     314 N           49.3922    80.5359    51.2900 N             1 RES     
     315 H           47.9694    82.9890    51.2356 H             1 RES     
     316 H           46.8450    81.9000    51.6862 H             1 RES     
     317 H           50.1256    80.7519    50.5998 H             1 RES     
     318 C           53.4113    77.3727    52.4708 C             1 RES     
     319 C           52.5636    78.6107    53.7309 C             1 RES     
     320 H           52.6853    79.4145    56.1446 H             1 RES     
     321 O           50.8313    80.3443    54.2007 O             1 RES     
     322 C           54.9998    75.9925    52.5942 C             1 RES     
     323 C           53.1716    78.7277    55.4838 C             1 RES     
     324 C           55.7074    74.9720    51.5770 C             1 RES     
     325 C           51.2830    79.6586    53.4604 C             1 RES     
     326 C           54.5989    77.7003    56.1571 C             1 RES     
     327 H           52.9664    77.4044    51.4982 H             1 RES     
     328 C           55.6076    76.2793    54.7960 C             1 RES     
     329 O           56.1861    74.2468    50.7965 O             1 RES     
     330 C           54.9969    77.8889    57.6010 C             1 RES     
     331 O           54.3527    78.6471    58.0756 O             1 RES     
     332 H           56.4184    75.6961    55.1797 H             1 RES     
     333 H           39.3837    86.0559    40.0000 H             1 RES     
     334 N           56.3387    77.2593    59.1225 N             1 RES     
     335 C           57.7338    76.2584    58.3535 C             1 RES     
     336 C           58.7822    76.2222    56.8222 C             1 RES     
     337 H           58.4795    76.3131    59.1188 H             1 RES     
     338 H           57.0576    75.5257    57.9651 H             1 RES     
     339 N           60.1701    74.9255    56.4578 N             1 RES     
     340 H           58.0938    76.1398    56.0072 H             1 RES     
     341 H           59.3741    77.1007    56.9732 H             1 RES     
     342 C           61.1959    75.1998    54.5472 C             1 RES     
     343 H           60.8711    74.9856    57.2100 H             1 RES     
     344 C           62.5491    73.6599    54.5586 C             1 RES     
     345 H           60.5159    75.1129    53.7256 H             1 RES     
     346 H           61.6438    76.1649    54.4345 H             1 RES     
     347 N           63.5647    74.1085    52.4316 N             1 RES     
     348 H           63.2465    73.7375    55.3665 H             1 RES     
     349 H           62.1460    72.6777    54.6918 H             1 RES     
     350 C           65.0176    72.4413    52.4623 C             1 RES     
     351 H           62.8955    74.0327    51.6523 H             1 RES     
     352 C           65.7145    73.0212    50.6406 C             1 RES     
     353 H           65.7411    72.5060    53.2481 H             1 RES     
     354 H           64.6872    71.4363    52.6221 H             1 RES     
     355 N           67.1823    71.3467    50.6587 N             1 RES     
     356 H           64.9898    72.9571    49.8560 H             1 RES     
     357 H           66.0452    74.0268    50.4845 H             1 RES     
     358 H           66.6875    70.4581    50.8209 H             1 RES     
     359 C           70.8083    67.5932    50.0953 C             1 RES     
     360 C           70.3971    68.9532    48.7460 C             1 RES     
     361 H           71.0641    69.7352    46.4157 H             1 RES     
     362 O           69.0637    70.9397    48.0366 O             1 RES     
     363 C           72.1610    65.9805    50.2066 C             1 RES     
     364 C           71.3146    68.9783    47.1293 C             1 RES     
     365 C           72.5124    64.8582    51.2993 C             1 RES     
     366 C           69.2667    70.1891    48.8226 C             1 RES     
     367 C           72.6619    67.7410    46.6822 C             1 RES     
     368 H           70.2096    67.6917    50.9766 H             1 RES     
     369 C           73.1836    66.1747    48.1533 C             1 RES     
     370 O           72.7284    64.0643    52.1283 O             1 RES     
     371 C           73.3320    67.8689    45.3356 C             1 RES     
     372 O           72.9063    68.7206    44.7801 O             1 RES     
     373 H           73.9492    65.4722    47.8982 H             1 RES     
     374 H           55.5301    77.6464    59.7496 H             1 RES     
     375 N           74.8067    67.0404    44.0509 N             1 RES     
     376 C           75.3376    65.3593    44.7076 C             1 RES     
     377 C           74.6179    63.8671    45.5448 C             1 RES     
     378 H           75.7767    64.9211    43.8359 H             1 RES     
     379 H           75.6751    65.7750    45.6341 H             1 RES     
     380 N           75.6162    62.2907    46.0539 N             1 RES     
     381 H           74.1795    64.2317    46.4502 H             1 RES     
     382 H           74.0216    63.4693    44.7504 H             1 RES     
     383 C           74.4282    60.7317    47.0216 C             1 RES     
     384 H           76.0397    61.8907    45.2045 H             1 RES     
     385 C           75.8320    59.2827    47.3858 C             1 RES     
     386 H           73.9908    61.0858    47.9316 H             1 RES     
     387 H           73.6027    60.3920    46.4317 H             1 RES     
     388 N           74.3795    57.6828    48.4286 N             1 RES     
     389 H           76.2712    58.9067    46.4854 H             1 RES     
     390 H           76.6868    59.5853    47.9539 H             1 RES     
     391 C           75.9082    56.1315    48.8131 C             1 RES     
     392 H           73.9568    58.0421    49.2965 H             1 RES     
     393 C           74.4865    54.9467    49.6591 C             1 RES     
     394 H           76.3483    55.7222    47.9277 H             1 RES     
     395 H           76.8029    56.3721    49.3482 H             1 RES     
     396 N           76.0157    53.3764    50.0521 N             1 RES     
     397 H           74.0465    55.3577    50.5436 H             1 RES     
     398 H           73.5934    54.7073    49.1207 H             1 RES     
     399 H           76.8007    53.7858    50.5784 H             1 RES     
     400 C           79.1411    49.3424    51.2820 C             1 RES     
     401 C           77.2342    49.4454    51.7207 C             1 RES     
     402 H           75.3628    48.1448    52.8578 H             1 RES     
     403 O           75.0779    50.6989    51.6433 O             1 RES     
     404 C           80.6602    47.9182    51.6093 C             1 RES     
     405 C           76.4054    48.0549    52.6349 C             1 RES     
     406 C           82.2233    47.8150    51.2591 C             1 RES     
     407 C           76.1509    50.6783    51.3777 C             1 RES     
     408 C           77.3054    46.4963    53.1891 C             1 RES     
     409 CL          82.3059    46.7481    51.7757 CL            1 RES     
     410 H           79.4911    50.2062    50.7565 H             1 RES     
     411 C           79.4602    46.3054    52.7310 C             1 RES     
     412 O           83.3572    47.7911    50.9795 O             1 RES     
     413 C           76.5179    45.4392    53.9247 C             1 RES     
     414 O           75.4681    45.7568    54.0346 O             1 RES     
     415 H           79.9705    45.4194    53.0464 H             1 RES     
     416 H           74.7590    68.0514    43.6357 H             1 RES     
     417 H           10.9606   112.2853    48.4588 H             1 RES     
     418 H           76.5753    44.4578    54.4047 H             1 RES     
     419 N           11.0931   111.3940    79.0792 N             1 RES     
     420 C           12.9067   110.8938    79.0793 C             1 RES     
     421 C           14.5951   111.6650    79.0793 C             1 RES     
     422 H           12.9558   110.2780    79.9529 H             1 RES     
     423 H           12.9177   110.7561    78.0182 H             1 RES     
     424 N           16.2627   110.6853    79.0793 N             1 RES     
     425 H           14.6268   112.2819    78.2056 H             1 RES     
     426 H           14.6165   112.0819    80.0645 H             1 RES     
     427 C           18.0554   111.9360    79.0793 C             1 RES     
     428 H           16.2859   110.0911    79.9203 H             1 RES     
     429 C           19.5562   110.5394    79.0793 C             1 RES     
     430 H           18.0987   112.5522    78.2057 H             1 RES     
     431 H           18.1033   112.6185    79.9019 H             1 RES     
     432 N           21.4114   112.0610    79.0794 N             1 RES     
     433 H           19.5369   109.9219    79.9530 H             1 RES     
     434 H           19.5338   109.8219    78.2858 H             1 RES     
     435 C           23.0164   110.5394    79.0794 C             1 RES     
     436 H           21.4328   112.6553    78.2384 H             1 RES     
     437 C           24.4130   112.0193    79.0795 C             1 RES     
     438 H           23.0336   109.9218    79.9531 H             1 RES     
     439 H           23.0378   109.7731    78.3330 H             1 RES     
     440 N           26.0389   110.4977    79.0795 N             1 RES     
     441 H           24.3939   112.6368    78.2058 H             1 RES     
     442 H           24.3893   112.7835    79.8280 H             1 RES     
     443 H           25.9005   109.8474    78.2929 H             1 RES     
     444 C           30.2888   107.4172    79.0359 C             1 RES     
     445 C           30.3340   109.3748    78.9654 C             1 RES     
     446 H           31.9462   111.3424    78.8387 H             1 RES     
     447 O           29.1129   111.5508    78.9327 O             1 RES     
     448 C           31.7543   105.9021    79.0368 C             1 RES     
     449 C           31.9591   110.2731    78.8758 C             1 RES     
     450 C           31.7383   104.2980    79.0938 C             1 RES     
     451 C           29.0458   110.4480    78.9738 C             1 RES     
     452 C           33.6269   109.3991    78.8471 C             1 RES     
     453 CL          32.9248   104.2484    79.0532 CL            1 RES     
     454 H           29.2931   107.0286    79.0851 H             1 RES     
     455 C           33.6594   107.1895    78.9236 C             1 RES     
     456 O           31.6697   103.1328    79.1372 O             1 RES     
     457 C           34.8757   110.2440    78.7728 C             1 RES     
     458 O           34.6086   111.3131    78.7447 O             1 RES     
     459 H           34.6076   106.6941    78.9071 H             1 RES     
     460 H           10.0000   111.4246    79.0455 H             1 RES     
     461 N           36.9979   110.1925    78.6988 N             1 RES     
     462 C           37.5708   108.4347    78.3507 C             1 RES     
     463 C           37.0757   106.9478    77.3560 C             1 RES     
     464 H           38.5665   108.6032    77.9973 H             1 RES     
     465 H           37.1038   108.0567    79.2362 H             1 RES     
     466 N           38.0346   105.2685    77.3179 N             1 RES     
     467 H           36.0860   106.7037    77.6813 H             1 RES     
     468 H           37.2716   107.3041    76.3663 H             1 RES     
     469 C           37.1499   103.7420    76.0275 C             1 RES     
     470 H           38.9922   105.4532    76.9866 H             1 RES     
     471 C           38.4409   102.1685    76.2724 C             1 RES     
     472 H           36.1618   103.4870    76.3492 H             1 RES     
     473 H           37.0380   104.0519    75.0095 H             1 RES     
     474 N           37.3364   100.6163    74.8137 N             1 RES     
     475 H           39.4322   102.4009    75.9432 H             1 RES     
     476 H           38.6000   101.8401    77.2783 H             1 RES     
     477 C           38.7404    98.9301    75.0908 C             1 RES     
     478 H           36.3826   100.3899    75.1297 H             1 RES     
     479 C           37.6309    97.8021    73.8113 C             1 RES     
     480 H           39.7350    99.1283    74.7492 H             1 RES     
     481 H           38.9698    98.5705    76.0721 H             1 RES     
     482 N           39.0368    96.0963    74.0813 N             1 RES     
     483 H           36.6364    97.6056    74.1537 H             1 RES     
     484 H           37.4043    98.1643    72.8304 H             1 RES     
     485 H           39.1337    95.8870    75.0851 H             1 RES     
     486 C           41.9419    91.7317    74.3342 C             1 RES     
     487 C           40.2795    91.9030    73.3112 C             1 RES     
     488 H           38.7136    90.5901    71.7910 H             1 RES     
     489 O           38.3467    93.2981    72.5733 O             1 RES     
     490 C           43.3289    90.1772    74.6547 C             1 RES     
     491 C           39.6241    90.4610    72.3380 C             1 RES     
     492 C           44.6926    90.0170    75.4863 C             1 RES     
     493 C           39.2804    93.2411    73.1626 C             1 RES     
     494 C           40.4794    88.7849    72.2645 C             1 RES     
     495 CL          44.8142    88.8871    75.1393 CL            1 RES     
     496 H           42.2058    92.6329    74.8472 H             1 RES     
     497 C           42.3613    88.5125    73.3930 C             1 RES     
     498 O           45.6793    89.9545    76.1083 O             1 RES     
     499 C           39.8442    87.6937    71.4369 C             1 RES     
     500 O           38.9168    88.0637    70.9699 O             1 RES     
     501 H           42.8463    87.5597    73.3505 H             1 RES     
     502 H           36.8593   111.2080    79.0813 H             1 RES     
     503 N           40.0301    85.6769    70.7971 N             1 RES     
     504 C           41.3502    84.8129    71.8219 C             1 RES     
     505 C           41.9976    84.7673    73.5610 C             1 RES     
     506 H           41.1022    83.7845    71.6619 H             1 RES     
     507 H           42.1100    85.4972    71.5066 H             1 RES     
     508 N           43.4558    83.6541    74.1734 N             1 RES     
     509 H           42.2935    85.7717    73.7815 H             1 RES     
     510 H           41.1751    84.2996    74.0606 H             1 RES     
     511 C           43.9402    83.8706    76.2940 C             1 RES     
     512 H           43.2034    82.6706    74.0007 H             1 RES     
     513 C           45.4947    82.5530    76.5184 C             1 RES     
     514 H           44.2433    84.8709    76.5227 H             1 RES     
     515 H           43.1142    83.6760    76.9455 H             1 RES     
     516 N           45.8890    82.9163    78.8571 N             1 RES     
     517 H           45.2065    81.5444    76.3067 H             1 RES     
     518 H           46.3335    82.6971    75.8700 H             1 RES     
     519 C           47.5646    81.4900    79.0794 C             1 RES     
     520 H           46.1681    83.8862    79.0630 H             1 RES     
     521 C           47.7042    81.9686    81.0522 C             1 RES     
     522 H           47.2983    80.4702    78.8946 H             1 RES     
     523 H           48.4220    81.5565    78.4429 H             1 RES     
     524 N           49.3922    80.5359    81.2900 N             1 RES     
     525 H           47.9694    82.9890    81.2356 H             1 RES     
     526 H           46.8450    81.9000    81.6862 H             1 RES     
     527 H           50.1256    80.7519    80.5998 H             1 RES     
     528 C           53.4113    77.3727    82.4708 C             1 RES     
     529 C           52.5636    78.6107    83.7309 C             1 RES     
     530 H           52.6853    79.4145    86.1446 H             1 RES     
     531 O           50.8313    80.3443    84.2007 O             1 RES     
     532 C           54.9998    75.9925    82.5942 C             1 RES     
     533 C           53.1716    78.7277    85.4838 C             1 RES     
     534 C           55.7074    74.9720    81.5770 C             1 RES     
     535 C           51.2830    79.6586    83.4604 C             1 RES     
     536 C           54.5989    77.7003    86.1571 C             1 RES     
     537 H           52.9664    77.4044    81.4982 H             1 RES     
     538 C           55.6076    76.2793    84.7960 C             1 RES     
     539 O           56.1861    74.2468    80.7965 O             1 RES     
     540 C           54.9969    77.8889    87.6010 C             1 RES     
     541 O           54.3527    78.6471    88.0756 O             1 RES     
     542 H           56.4184    75.6961    85.1797 H             1 RES     
     543 H           39.3837    86.0559    70.0000 H             1 RES     
     544 N           56.3387    77.2593    89.1225 N             1 RES     
     545 C           57.7338    76.2584    88.3535 C             1 RES     
     546 C           58.7822    76.2222    86.8222 C             1 RES     
     547 H           58.4795    76.3131    89.1188 H             1 RES     
     548 H           57.0576    75.5257    87.9651 H             1 RES     
     549 N           60.1701    74.9255    86.4578 N             1 RES     
     550 H           58.0938    76.1398    86.0072 H             1 RES     
     551 H           59.3741    77.1007    86.9732 H             1 RES     
     552 C           61.1959    75.1998    84.5472 C             1 RES     
     553 H           60.8711    74.9856    87.2100 H             1 RES     
     554 C           62.5491    73.6599    84.5586 C             1 RES     
     555 H           60.5159    75.1129    83.7256 H             1 RES     
     556 H           61.6438    76.1649    84.4345 H             1 RES     
     557 N           63.5647    74.1085    82.4316 N             1 RES     
     558 H           63.2465    73.7375    85.3665 H             1 RES     
     559 H           62.1460    72.6777    84.6918 H             1 RES     
     560 C           65.0176    72.4413    82.4623 C             1 RES     
     561 H           62.8955    74.0327    81.6523 H             1 RES     
     562 C           65.7145    73.0212    80.6406 C             1 RES     
     563 H           65.7411    72.5060    83.2481 H             1 RES     
     564 H           64.6872    71.4363    82.6221 H             1 RES     
     565 N           67.1823    71.3467    80.6587 N             1 RES     
     566 H           64.9898    72.9571    79.8560 H             1 RES     
     567 H           66.0452    74.0268    80.4845 H             1 RES     
     568 H           66.6875    70.4581    80.8209 H             1 RES     
     569 C           70.8083    67.5932    80.0953 C             1 RES     
     570 C           70.3971    68.9532    78.7460 C             1 RES     
     571 H           71.0641    69.7352    76.4157 H             1 RES     
     572 O           69.0637    70.9397    78.0366 O             1 RES     
     573 C           72.1610    65.9805    80.2066 C             1 RES     
     574 C           71.3146    68.9783    77.1293 C             1 RES     
     575 C           72.5124    64.8582    81.2993 C             1 RES     
     576 C           69.2667    70.1891    78.8226 C             1 RES     
     577 C           72.6619    67.7410    76.6822 C             1 RES     
     578 H           70.2096    67.6917    80.9766 H             1 RES     
     579 C           73.1836    66.1747    78.1533 C             1 RES     
     580 O           72.7284    64.0643    82.1283 O             1 RES     
     581 C           73.3320    67.8689    75.3356 C             1 RES     
     582 O           72.9063    68.7206    74.7801 O             1 RES     
     583 H           73.9492    65.4722    77.8982 H             1 RES     
     584 H           55.5301    77.6464    89.7496 H             1 RES     
     585 N           74.8067    67.0404    74.0509 N             1 RES     
     586 C           75.3376    65.3593    74.7076 C             1 RES     
     587 C           74.6179    63.8671    75.5448 C             1 RES     
     588 H           75.7767    64.9211    73.8359 H             1 RES     
     589 H           75.6751    65.7750    75.6341 H             1 RES     
     590 N           75.6162    62.2907    76.0539 N             1 RES     
     591 H           74.1795    64.2317    76.4502 H             1 RES     
     592 H           74.0216    63.4693    74.7504 H             1 RES     
     593 C           74.4282    60.7317    77.0216 C             1 RES     
     594 H           76.0397    61.8907    75.2045 H             1 RES     
     595 C           75.8320    59.2827    77.3858 C             1 RES     
     596 H           73.9908    61.0858    77.9316 H             1 RES     
     597 H           73.6027    60.3920    76.4317 H             1 RES     
     598 N           74.3795    57.6828    78.4286 N             1 RES     
     599 H           76.2712    58.9067    76.4854 H             1 RES     
     600 H           76.6868    59.5853    77.9539 H             1 RES     
     601 C           75.9082    56.1315    78.8131 C             1 RES     
     602 H           73.9568    58.0421    79.2965 H             1 RES     
     603 C           74.4865    54.9467    79.6591 C             1 RES     
     604 H           76.3483    55.7222    77.9277 H             1 RES     
     605 H           76.8029    56.3721    79.3482 H             1 RES     
     606 N           76.0157    53.3764    80.0521 N             1 RES     
     607 H           74.0465    55.3577    80.5436 H             1 RES     
     608 H           73.5934    54.7073    79.1207 H             1 RES     
     609 H           76.8007    53.7858    80.5784 H             1 RES     
     610 C           79.1411    49.3424    81.2820 C             1 RES     
     611 C           77.2342    49.4454    81.7207 C             1 RES     
     612 H           75.3628    48.1448    82.8578 H             1 RES     
     613 O           75.0779    50.6989    81.6433 O             1 RES     
     614 C           80.6602    47.9182    81.6093 C             1 RES     
     615 C           76.4054    48.0549    82.6349 C             1 RES     
     616 C           82.2233    47.8150    81.2591 C             1 RES     
     617 C           76.1509    50.6783    81.3777 C             1 RES     
     618 C           77.3054    46.4963    83.1891 C             1 RES     
     619 CL          82.3059    46.7481    81.7757 CL            1 RES     
     620 H           79.4911    50.2062    80.7565 H             1 RES     
     621 C           79.4602    46.3054    82.7310 C             1 RES     
     622 O           83.3572    47.7911    80.9795 O             1 RES     
     623 C           76.5179    45.4392    83.9247 C             1 RES     
     624 O           75.4681    45.7568    84.0346 O             1 RES     
     625 H           79.9705    45.4194    83.0464 H             1 RES     
     626 H           74.7590    68.0514    73.6357 H             1 RES     
     627 H           10.9606   112.2853    78.4588 H             1 RES     
     628 H           76.5753    44.4578    84.4047 H             1 RES     
     629 N           14.6506   106.3963    48.2812 N             1 RES     
     630 C           15.9423   105.9910    46.9748 C             1 RES     
     631 C           17.7505   106.2397    46.6369 C             1 RES     
     632 H           15.8622   104.9254    46.9222 H             1 RES     
     633 H           15.6658   106.8314    46.3728 H             1 RES     
     634 N           18.6837   105.6042    45.0666 N             1 RES     
     635 H           17.8995   107.2992    46.6479 H             1 RES     
     636 H           18.1755   105.6031    47.3845 H             1 RES     
     637 C           20.8150   106.0867    45.0144 C             1 RES     
     638 H           18.5855   104.5796    45.0276 H             1 RES     
     639 C           21.4027   105.2542    43.2356 C             1 RES     
     640 H           20.9736   107.1448    45.0189 H             1 RES     
     641 H           21.3591   105.7218    45.8604 H             1 RES     
     642 N           23.7197   105.8684    43.3431 N             1 RES     
     643 H           21.2639   104.1933    43.2176 H             1 RES     
     644 H           20.8691   105.5742    42.3651 H             1 RES     
     645 C           24.3345   104.9640    41.4208 C             1 RES     
     646 H           23.8557   106.8893    43.3588 H             1 RES     
     647 C           26.2425   105.5956    41.7392 C             1 RES     
     648 H           24.2265   103.9000    41.3836 H             1 RES     
     649 H           23.8238   105.2152    40.5148 H             1 RES     
     650 N           26.8750   104.6894    39.8059 N             1 RES     
     651 H           26.3488   106.6597    41.7773 H             1 RES     
     652 H           26.7506   105.3417    42.6459 H             1 RES     
     653 H           26.2774   105.0472    39.0472 H             1 RES     
     654 C           28.9586   102.8118    35.3690 C             1 RES     
     655 C           29.9409   103.8589    36.7023 C             1 RES     
     656 H           32.2442   104.8281    37.1943 H             1 RES     
     657 O           29.9650   105.0905    38.8725 O             1 RES     
     658 C           29.4586   101.9215    33.5249 C             1 RES     
     659 C           31.7392   104.2541    36.4457 C             1 RES     
     660 C           28.6713   101.0622    32.4210 C             1 RES     
     661 C           29.3767   104.5028    38.1439 C             1 RES     
     662 C           32.7185   103.6967    34.9368 C             1 RES     
     663 CL          29.6440   100.9725    31.7444 CL            1 RES     
     664 H           27.9348   102.6564    35.6384 H             1 RES     
     665 C           31.6798   102.5103    33.3867 C             1 RES     
     666 O           28.0517   100.4411    31.6499 O             1 RES     
     667 C           34.1749   104.0833    34.8469 C             1 RES     
     668 O           34.4664   104.6707    35.7330 O             1 RES     
     669 H           32.2372   102.1942    32.5299 H             1 RES     
     670 N           36.7719   103.8757    33.0969 N             1 RES     
     671 C           38.0463   103.5493    31.7520 C             1 RES     
     672 H           36.8907   104.8333    33.4574 H             1 RES     
     673 C           39.8139   103.9403    31.3420 C             1 RES     
     674 H           38.0547   102.4797    31.7242 H             1 RES     
     675 H           37.6787   104.3491    31.1435 H             1 RES     
     676 N           40.7415   103.3483    29.7515 N             1 RES     
     677 H           39.8733   105.0086    31.3257 H             1 RES     
     678 H           40.3174   103.3593    32.0862 H             1 RES     
     679 C           42.8212   104.0061    29.6102 C             1 RES     
     680 H           40.7289   102.3185    29.7371 H             1 RES     
     681 C           43.4140   103.1840    27.8282 C             1 RES     
     682 H           42.8899   105.0735    29.5871 H             1 RES     
     683 H           43.4237   103.7081    30.4427 H             1 RES     
     684 N           45.6731   103.9923    27.8369 N             1 RES     
     685 H           43.3647   102.1151    27.8372 H             1 RES     
     686 H           42.8248   103.4376    26.9718 H             1 RES     
     687 C           46.2939   103.0974    25.9120 C             1 RES     
     688 H           45.7229   105.0211    27.8266 H             1 RES     
     689 C           48.1517   103.8938    26.1462 C             1 RES     
     690 H           46.2749   102.0276    25.9007 H             1 RES     
     691 H           45.7321   103.2836    25.0207 H             1 RES     
     692 N           48.7899   102.9983    24.2098 N             1 RES     
     693 H           48.1690   104.9636    26.1585 H             1 RES     
     694 H           48.7112   103.7047    27.0384 H             1 RES     
     695 H           13.7325   106.5323    48.8604 H             1 RES     
     696 H           49.6799   102.9926    23.5737 H             1 RES     
     697 N           25.3109    94.8235    35.2813 N             1 RES     
     698 C           27.1503    94.6785    34.9139 C             1 RES     
     699 C           28.3088    93.7589    33.7924 C             1 RES     
     700 H           27.4016    95.6942    34.6903 H             1 RES     
     701 H           27.3045    93.9885    35.7171 H             1 RES     
     702 N           30.2328    93.9552    33.7822 N             1 RES     
     703 H           28.1289    92.7219    33.9850 H             1 RES     
     704 H           28.0642    94.2082    32.8526 H             1 RES     
     705 C           31.2695    92.7049    32.3192 C             1 RES     
     706 H           30.4540    94.9399    33.5768 H             1 RES     
     707 C           33.2317    93.2081    32.6346 C             1 RES     
     708 H           31.1003    91.6654    32.5078 H             1 RES     
     709 H           30.9423    92.8602    31.3125 H             1 RES     
     710 N           34.2027    91.7701    30.9773 N             1 RES     
     711 H           33.4229    94.2423    32.4377 H             1 RES     
     712 H           33.5950    93.0897    33.6340 H             1 RES     
     713 C           36.3137    92.3260    31.3322 C             1 RES     
     714 H           34.0212    90.7739    31.1658 H             1 RES     
     715 C           36.8949    91.0314    29.8738 C             1 RES     
     716 H           36.5374    93.3510    31.1216 H             1 RES     
     717 H           36.7342    92.2618    32.3139 H             1 RES     
     718 N           39.0245    91.5820    30.2208 N             1 RES     
     719 H           36.6695    90.0070    30.0851 H             1 RES     
     720 H           36.4731    91.0991    28.8928 H             1 RES     
     721 H           39.2539    91.4556    31.2169 H             1 RES     
     722 C           44.1929    92.4205    30.5923 C             1 RES     
     723 C           43.3620    91.1160    29.3893 C             1 RES     
     724 H           43.9267    89.3646    27.6286 H             1 RES     
     725 O           41.3024    90.0233    28.4998 O             1 RES     
     726 C           46.1767    93.0084    30.9949 C             1 RES     
     727 C           44.4142    90.0665    28.2724 C             1 RES     
     728 C           46.8763    94.0715    31.9732 C             1 RES     
     729 C           41.7333    90.7698    29.1921 C             1 RES     
     730 C           46.2933    90.1747    28.2150 C             1 RES     
     731 CL          47.9586    93.7709    31.5854 CL            1 RES     
     732 H           43.4762    92.9567    31.1785 H             1 RES     
     733 C           47.3058    91.6236    29.5434 C             1 RES     
     734 O           47.3338    94.8597    32.7038 O             1 RES     
     735 C           47.0331    89.2662    27.2629 C             1 RES     
     736 O           46.3186    88.6358    26.7087 O             1 RES     
     737 H           48.3735    91.6841    29.5099 H             1 RES     
     738 N           49.8686    88.4353    26.2050 N             1 RES     
     739 C           51.7122    88.2228    25.8961 C             1 RES     
     740 H           49.4097    87.5133    26.1918 H             1 RES     
     741 C           52.8755    87.1848    24.8888 C             1 RES     
     742 H           51.9900    89.2095    25.5892 H             1 RES     
     743 H           51.8339    87.6045    26.7609 H             1 RES     
     744 N           54.8030    87.3423    24.9073 N             1 RES     
     745 H           52.6694    86.1727    25.1683 H             1 RES     
     746 H           52.6614    87.5529    23.9072 H             1 RES     
     747 C           55.8451    85.9468    23.5864 C             1 RES     
     748 H           55.0495    88.3004    24.6207 H             1 RES     
     749 C           57.8100    86.4384    23.9028 C             1 RES     
     750 H           55.6497    84.9317    23.8625 H             1 RES     
     751 H           55.5436    86.0179    22.5623 H             1 RES     
     752 N           58.7868    84.8399    22.4035 N             1 RES     
     753 H           58.0275    87.4471    23.6195 H             1 RES     
     754 H           58.1485    86.4027    24.9172 H             1 RES     
     755 C           60.9007    85.3846    22.7581 C             1 RES     
     756 H           58.5800    83.8681    22.6753 H             1 RES     
     757 C           61.4865    83.9541    21.4348 C             1 RES     
     758 H           61.1508    86.3822    22.4628 H             1 RES     
     759 H           61.2979    85.4002    23.7515 H             1 RES     
     760 N           63.6191    84.4924    21.7825 N             1 RES     
     761 H           61.2347    82.9571    21.7308 H             1 RES     
     762 H           61.0881    83.9420    20.4418 H             1 RES     
     763 H           24.3262    95.0582    35.6963 H             1 RES     
     764 H           64.6054    84.1461    21.4599 H             1 RES     
     765 N           37.8699    85.6336    72.1933 N             1 RES     
     766 C           39.6072    85.0324    71.7937 C             1 RES     
     767 C           40.5537    83.4481    71.5950 C             1 RES     
     768 H           39.7808    85.5021    70.8482 H             1 RES     
     769 H           39.9336    85.1559    72.8052 H             1 RES     
     770 N           42.4331    83.3259    71.1549 N             1 RES     
     771 H           40.4448    82.9322    72.5261 H             1 RES     
     772 H           40.1194    83.0762    70.6906 H             1 RES     
     773 C           43.2039    81.2860    71.0044 C             1 RES     
     774 H           42.5816    83.7927    70.2488 H             1 RES     
     775 C           45.1746    81.6025    70.5362 C             1 RES     
     776 H           43.1047    80.7641    71.9332 H             1 RES     
     777 H           42.6842    80.6816    70.2907 H             1 RES     
     778 N           45.8490    79.3032    70.4123 N             1 RES     
     779 H           45.2939    82.1120    69.6028 H             1 RES     
     780 H           45.7272    82.2211    71.2121 H             1 RES     
     781 C           47.9716    79.6649    69.9075 C             1 RES     
     782 H           45.7365    78.8113    71.3102 H             1 RES     
     783 C           48.2979    77.6569    69.8611 C             1 RES     
     784 H           48.1205    80.1540    68.9675 H             1 RES     
     785 H           48.5754    80.2987    70.5228 H             1 RES     
     786 N           50.4375    78.0070    69.3526 N             1 RES     
     787 H           48.1476    77.1690    70.8015 H             1 RES     
     788 H           47.6930    77.0261    69.2439 H             1 RES     
     789 H           50.8584    78.6348    70.0522 H             1 RES     
     790 C           55.5537    78.1797    68.1915 C             1 RES     
     791 C           54.5446    76.5337    68.5261 C             1 RES     
     792 H           54.8098    74.0029    68.6322 H             1 RES     
     793 O           52.3849    75.4154    69.0846 O             1 RES     
     794 C           57.5598    78.6141    67.7121 C             1 RES     
     795 C           55.3916    74.8809    68.4439 C             1 RES     
     796 C           58.4038    79.9510    67.4347 C             1 RES     
     797 C           52.9193    76.3659    68.9022 C             1 RES     
     798 C           57.2204    74.6714    68.0465 C             1 RES     
     799 CL          59.3992    79.3283    67.2518 CL            1 RES     
     800 H           54.9483    79.0584    68.2700 H             1 RES     
     801 C           58.4275    76.4825    67.6566 C             1 RES     
     802 O           58.9705    80.9540    67.2417 O             1 RES     
     803 C           57.7887    73.2733    68.0104 C             1 RES     
     804 O           56.9994    72.5377    68.2360 O             1 RES     
     805 H           59.4665    76.3622    67.4310 H             1 RES     
     806 N           60.3897    71.5822    67.5365 N             1 RES     
     807 C           62.1444    70.9795    67.2246 C             1 RES     
     808 H           59.9640    71.0243    68.2905 H             1 RES     
     809 C           63.1211    69.4016    67.1877 C             1 RES     
     810 H           62.3288    71.3650    66.2437 H             1 RES     
     811 H           62.4487    71.2000    68.2265 H             1 RES     
     812 N           65.0106    69.2748    66.7946 N             1 RES     
     813 H           63.0025    68.9700    68.1596 H             1 RES     
     814 H           62.7110    68.9415    66.3131 H             1 RES     
     815 C           65.8184    67.2443    66.8438 C             1 RES     
     816 H           65.1691    69.6605    65.8528 H             1 RES     
     817 C           67.7923    67.5536    66.3845 C             1 RES     
     818 H           65.7096    66.8068    67.8142 H             1 RES     
     819 H           65.3230    66.5684    66.1786 H             1 RES     
     820 N           68.5075    65.2654    66.4820 N             1 RES     
     821 H           67.9214    67.9787    65.4111 H             1 RES     
     822 H           68.3211    68.2409    67.0114 H             1 RES     
     823 C           70.6333    65.6192    65.9850 C             1 RES     
     824 H           68.3856    64.8546    67.4187 H             1 RES     
     825 C           70.9941    63.6216    66.1269 C             1 RES     
     826 H           70.7924    66.0240    65.0074 H             1 RES     
     827 H           71.2141    66.3171    66.5511 H             1 RES     
     828 N           73.1371    63.9638    65.6275 N             1 RES     
     829 H           70.8335    63.2180    67.1048 H             1 RES     
     830 H           70.4121    62.9265    65.5586 H             1 RES     
     831 H           36.9774    86.2208    72.4289 H             1 RES     
     832 H           74.0523    63.3716    65.5350 H             1 RES     
     833 N           82.3485    74.8148    80.0803 N             1 RES     
     834 C           81.5019    73.6169    78.9024 C             1 RES     
     835 C           80.8114    73.5642    77.1802 C             1 RES     
     836 H           82.2106    72.8160    78.8703 H             1 RES     
     837 H           80.5396    73.7990    79.3335 H             1 RES     
     838 N           79.9918    72.0163    76.3600 N             1 RES     
     839 H           80.0667    74.3319    77.1480 H             1 RES     
     840 H           81.7136    73.6301    76.6088 H             1 RES     
     841 C           79.2928    72.3313    74.3130 C             1 RES     
     842 H           80.6847    71.2542    76.3488 H             1 RES     
     843 C           78.5144    70.4959    73.8352 C             1 RES     
     844 H           78.5429    73.0935    74.2719 H             1 RES     
     845 H           80.0591    72.6609    73.6431 H             1 RES     
     846 N           77.8091    71.0172    71.6019 N             1 RES     
     847 H           79.2535    69.7225    73.8580 H             1 RES     
     848 H           77.7599    70.1171    74.4926 H             1 RES     
     849 C           76.9745    69.0302    71.1051 C             1 RES     
     850 H           77.0964    71.7604    71.5778 H             1 RES     
     851 C           76.4700    69.7099    69.2547 C             1 RES     
     852 H           77.6974    68.2412    71.0991 H             1 RES     
     853 H           76.2386    68.5774    71.7362 H             1 RES     
     854 N           75.6261    67.7141    68.7415 N             1 RES     
     855 H           75.7479    70.4996    69.2623 H             1 RES     
     856 H           77.2086    70.1613    68.6258 H             1 RES     
     857 H           74.9346    67.4402    69.4540 H             1 RES     
     858 C           73.4522    63.2802    66.9615 C             1 RES     
     859 C           73.5240    64.9630    65.9604 C             1 RES     
     860 H           72.8489    66.0067    63.7374 H             1 RES     
     861 O           74.2102    67.3589    65.8347 O             1 RES     
     862 C           72.6810    61.3577    66.5712 C             1 RES     
     863 C           72.7918    65.0721    64.2551 C             1 RES     
     864 C           72.6123    59.9701    67.3753 C             1 RES     
     865 C           74.1896    66.4281    66.4310 C             1 RES     
     866 C           71.9548    63.6231    63.3913 C             1 RES     
     867 CL          72.0440    59.4366    66.4784 CL            1 RES     
     868 H           73.9085    63.3540    67.9265 H             1 RES     
     869 C           71.8339    61.6892    64.4565 C             1 RES     
     870 O           72.5894    58.9856    68.0035 O             1 RES     
     871 C           71.3995    63.8413    62.0046 C             1 RES     
     872 O           71.5779    64.8809    61.6844 O             1 RES     
     873 H           71.3581    60.8667    63.9647 H             1 RES     
     874 N           69.9004    62.4792    59.6072 N             1 RES     
     875 C           68.9749    61.3109    58.4592 C             1 RES     
     876 H           69.4783    63.4173    59.5555 H             1 RES     
     877 C           68.1416    61.3100    56.8006 C             1 RES     
     878 H           69.6903    60.5247    58.3366 H             1 RES     
     879 H           68.0501    61.4592    58.9766 H             1 RES     
     880 N           67.2786    59.7791    55.9930 N             1 RES     
     881 H           67.3855    62.0646    56.8610 H             1 RES     
     882 H           68.9910    61.4135    56.1582 H             1 RES     
     883 C           66.4038    60.1576    54.0259 C             1 RES     
     884 H           67.9794    59.0307    55.8940 H             1 RES     
     885 C           65.6153    58.3274    53.5447 C             1 RES     
     886 H           65.6419    60.9069    54.0777 H             1 RES     
     887 H           67.1055    60.5258    53.3070 H             1 RES     
     888 N           64.7152    58.9188    51.4005 N             1 RES     
     889 H           66.3651    57.5672    53.4751 H             1 RES     
     890 H           64.9250    57.9107    54.2481 H             1 RES     
     891 C           63.8713    56.9369    50.8992 C             1 RES     
     892 H           63.9920    59.6493    51.4654 H             1 RES     
     893 C           63.2015    57.6759    49.1256 C             1 RES     
     894 H           64.6028    56.1620    50.8018 H             1 RES     
     895 H           63.1985    56.4476    51.5720 H             1 RES     
     896 N           62.3470    55.6857    48.6084 N             1 RES     
     897 H           62.4710    58.4515    49.2245 H             1 RES     
     898 H           63.8772    58.1638    48.4547 H             1 RES     
     899 H           82.8074    75.3137    80.9390 H             1 RES     
     900 H           61.7625    55.2404    47.7979 H             1 RES     
@<TRIPOS>BOND
       1        1        2 1
       2        1       41 1
       3        1      209 1
       4        2        3 1
       5        2        4 1
       6        2        5 1
       7        3        6 1
       8        3        7 1
       9        3        8 1
      10        6        9 1
      11        6       10 1
      12        9       11 1
      13        9       12 1
      14        9       13 1
      15       11       14 1
      16       11       15 1
      17       11       16 1
      18       14       17 1
      19       14       18 1
      20       17       19 1
      21       17       20 1
      22       17       21 1
      23       19       22 1
      24       19       23 1
      25       19       24 1
      26       22       25 1
      27       22       33 1
      28       26       27 1
      29       26       30 1
      30       26       35 1
      31       27       31 1
      32       27       33 1
      33       28       31 1
      34       29       33 1
      35       30       36 1
      36       30       32 1
      37       31       34 1
      38       32       37 1
      39       32      629 1
      40       34       36 1
      41       34       38 1
      42       36       40 1
      43       38       39 1
      44       38       42 1
      45       42       43 1
      46       42       82 1
      47       43       44 1
      48       43       45 1
      49       43       46 1
      50       44       47 1
      51       44       48 1
      52       44       49 1
      53       47       50 1
      54       47       51 1
      55       50       52 1
      56       50       53 1
      57       50       54 1
      58       52       55 1
      59       52       56 1
      60       52       57 1
      61       55       58 1
      62       55       59 1
      63       58       60 1
      64       58       61 1
      65       58       62 1
      66       60       63 1
      67       60       64 1
      68       60       65 1
      69       63       66 1
      70       63       74 1
      71       67       68 1
      72       67       71 1
      73       67       76 1
      74       68       72 1
      75       68       74 1
      76       69       72 1
      77       70       74 1
      78       71       77 1
      79       71       73 1
      80       72       75 1
      81       73       78 1
      82       73      697 1
      83       75       77 1
      84       75       79 1
      85       77       81 1
      86       79       80 1
      87       79       83 1
      88       83       84 1
      89       83      124 1
      90       84       85 1
      91       84       86 1
      92       84       87 1
      93       85       88 1
      94       85       89 1
      95       85       90 1
      96       88       91 1
      97       88       92 1
      98       91       93 1
      99       91       94 1
     100       91       95 1
     101       93       96 1
     102       93       97 1
     103       93       98 1
     104       96       99 1
     105       96      100 1
     106       99      101 1
     107       99      102 1
     108       99      103 1
     109      101      104 1
     110      101      105 1
     111      101      106 1
     112      104      107 1
     113      104      115 1
     114      108      109 1
     115      108      112 1
     116      108      118 1
     117      109      113 1
     118      109      115 1
     119      110      113 1
     120      111      115 1
     121      112      119 1
     122      112      114 1
     123      113      116 1
     124      114      117 1
     125      114      120 1
     126      116      119 1
     127      116      121 1
     128      119      123 1
     129      121      122 1
     130      121      125 1
     131      125      126 1
     132      125      166 1
     133      126      127 1
     134      126      128 1
     135      126      129 1
     136      127      130 1
     137      127      131 1
     138      127      132 1
     139      130      133 1
     140      130      134 1
     141      133      135 1
     142      133      136 1
     143      133      137 1
     144      135      138 1
     145      135      139 1
     146      135      140 1
     147      138      141 1
     148      138      142 1
     149      141      143 1
     150      141      144 1
     151      141      145 1
     152      143      146 1
     153      143      147 1
     154      143      148 1
     155      146      149 1
     156      146      157 1
     157      150      151 1
     158      150      154 1
     159      150      160 1
     160      151      155 1
     161      151      157 1
     162      152      155 1
     163      153      157 1
     164      154      161 1
     165      154      156 1
     166      155      158 1
     167      156      159 1
     168      156      162 1
     169      158      161 1
     170      158      163 1
     171      161      165 1
     172      163      164 1
     173      163      167 1
     174      167      168 1
     175      167      208 1
     176      168      169 1
     177      168      170 1
     178      168      171 1
     179      169      172 1
     180      169      173 1
     181      169      174 1
     182      172      175 1
     183      172      176 1
     184      175      177 1
     185      175      178 1
     186      175      179 1
     187      177      180 1
     188      177      181 1
     189      177      182 1
     190      180      183 1
     191      180      184 1
     192      183      185 1
     193      183      186 1
     194      183      187 1
     195      185      188 1
     196      185      189 1
     197      185      190 1
     198      188      191 1
     199      188      199 1
     200      192      193 1
     201      192      196 1
     202      192      202 1
     203      193      197 1
     204      193      199 1
     205      194      197 1
     206      195      199 1
     207      196      203 1
     208      196      198 1
     209      197      200 1
     210      198      201 1
     211      198      204 1
     212      200      203 1
     213      200      205 1
     214      203      207 1
     215      205      206 1
     216      205      210 1
     217      211      212 1
     218      211      251 1
     219      211      417 1
     220      212      213 1
     221      212      214 1
     222      212      215 1
     223      213      216 1
     224      213      217 1
     225      213      218 1
     226      216      219 1
     227      216      220 1
     228      219      221 1
     229      219      222 1
     230      219      223 1
     231      221      224 1
     232      221      225 1
     233      221      226 1
     234      224      227 1
     235      224      228 1
     236      227      229 1
     237      227      230 1
     238      227      231 1
     239      229      232 1
     240      229      233 1
     241      229      234 1
     242      232      235 1
     243      232      243 1
     244      236      237 1
     245      236      240 1
     246      236      245 1
     247      237      241 1
     248      237      243 1
     249      238      241 1
     250      239      243 1
     251      240      246 1
     252      240      242 1
     253      241      244 1
     254      242      247 1
     255      242      692 1
     256      244      246 1
     257      244      248 1
     258      246      250 1
     259      248      249 1
     260      248      252 1
     261      252      253 1
     262      252      292 1
     263      253      254 1
     264      253      255 1
     265      253      256 1
     266      254      257 1
     267      254      258 1
     268      254      259 1
     269      257      260 1
     270      257      261 1
     271      260      262 1
     272      260      263 1
     273      260      264 1
     274      262      265 1
     275      262      266 1
     276      262      267 1
     277      265      268 1
     278      265      269 1
     279      268      270 1
     280      268      271 1
     281      268      272 1
     282      270      273 1
     283      270      274 1
     284      270      275 1
     285      273      276 1
     286      273      284 1
     287      277      278 1
     288      277      281 1
     289      277      286 1
     290      278      282 1
     291      278      284 1
     292      279      282 1
     293      280      284 1
     294      281      287 1
     295      281      283 1
     296      282      285 1
     297      283      288 1
     298      283      760 1
     299      285      287 1
     300      285      289 1
     301      287      291 1
     302      289      290 1
     303      289      293 1
     304      293      294 1
     305      293      333 1
     306      294      295 1
     307      294      296 1
     308      294      297 1
     309      295      298 1
     310      295      299 1
     311      295      300 1
     312      298      301 1
     313      298      302 1
     314      301      303 1
     315      301      304 1
     316      301      305 1
     317      303      306 1
     318      303      307 1
     319      303      308 1
     320      306      309 1
     321      306      310 1
     322      309      311 1
     323      309      312 1
     324      309      313 1
     325      311      314 1
     326      311      315 1
     327      311      316 1
     328      314      317 1
     329      314      325 1
     330      318      319 1
     331      318      322 1
     332      318      327 1
     333      319      323 1
     334      319      325 1
     335      320      323 1
     336      321      325 1
     337      322      328 1
     338      322      324 1
     339      323      326 1
     340      324      329 1
     341      324      765 1
     342      326      328 1
     343      326      330 1
     344      328      332 1
     345      330      331 1
     346      330      334 1
     347      334      335 1
     348      334      374 1
     349      335      336 1
     350      335      337 1
     351      335      338 1
     352      336      339 1
     353      336      340 1
     354      336      341 1
     355      339      342 1
     356      339      343 1
     357      342      344 1
     358      342      345 1
     359      342      346 1
     360      344      347 1
     361      344      348 1
     362      344      349 1
     363      347      350 1
     364      347      351 1
     365      350      352 1
     366      350      353 1
     367      350      354 1
     368      352      355 1
     369      352      356 1
     370      352      357 1
     371      355      358 1
     372      355      366 1
     373      359      360 1
     374      359      363 1
     375      359      368 1
     376      360      364 1
     377      360      366 1
     378      361      364 1
     379      362      366 1
     380      363      369 1
     381      363      365 1
     382      364      367 1
     383      365      370 1
     384      365      833 1
     385      367      369 1
     386      367      371 1
     387      369      373 1
     388      371      372 1
     389      371      375 1
     390      375      376 1
     391      375      416 1
     392      376      377 1
     393      376      378 1
     394      376      379 1
     395      377      380 1
     396      377      381 1
     397      377      382 1
     398      380      383 1
     399      380      384 1
     400      383      385 1
     401      383      386 1
     402      383      387 1
     403      385      388 1
     404      385      389 1
     405      385      390 1
     406      388      391 1
     407      388      392 1
     408      391      393 1
     409      391      394 1
     410      391      395 1
     411      393      396 1
     412      393      397 1
     413      393      398 1
     414      396      399 1
     415      396      407 1
     416      400      401 1
     417      400      404 1
     418      400      410 1
     419      401      405 1
     420      401      407 1
     421      402      405 1
     422      403      407 1
     423      404      411 1
     424      404      406 1
     425      405      408 1
     426      406      409 1
     427      406      412 1
     428      408      411 1
     429      408      413 1
     430      411      415 1
     431      413      414 1
     432      413      418 1
     433      419      420 1
     434      419      460 1
     435      419      627 1
     436      420      421 1
     437      420      422 1
     438      420      423 1
     439      421      424 1
     440      421      425 1
     441      421      426 1
     442      424      427 1
     443      424      428 1
     444      427      429 1
     445      427      430 1
     446      427      431 1
     447      429      432 1
     448      429      433 1
     449      429      434 1
     450      432      435 1
     451      432      436 1
     452      435      437 1
     453      435      438 1
     454      435      439 1
     455      437      440 1
     456      437      441 1
     457      437      442 1
     458      440      443 1
     459      440      451 1
     460      444      445 1
     461      444      448 1
     462      444      454 1
     463      445      449 1
     464      445      451 1
     465      446      449 1
     466      447      451 1
     467      448      455 1
     468      448      450 1
     469      449      452 1
     470      450      453 1
     471      450      456 1
     472      452      455 1
     473      452      457 1
     474      455      459 1
     475      457      458 1
     476      457      461 1
     477      461      462 1
     478      461      502 1
     479      462      463 1
     480      462      464 1
     481      462      465 1
     482      463      466 1
     483      463      467 1
     484      463      468 1
     485      466      469 1
     486      466      470 1
     487      469      471 1
     488      469      472 1
     489      469      473 1
     490      471      474 1
     491      471      475 1
     492      471      476 1
     493      474      477 1
     494      474      478 1
     495      477      479 1
     496      477      480 1
     497      477      481 1
     498      479      482 1
     499      479      483 1
     500      479      484 1
     501      482      485 1
     502      482      493 1
     503      486      487 1
     504      486      490 1
     505      486      496 1
     506      487      491 1
     507      487      493 1
     508      488      491 1
     509      489      493 1
     510      490      497 1
     511      490      492 1
     512      491      494 1
     513      492      495 1
     514      492      498 1
     515      494      497 1
     516      494      499 1
     517      497      501 1
     518      499      500 1
     519      499      503 1
     520      503      504 1
     521      503      543 1
     522      504      505 1
     523      504      506 1
     524      504      507 1
     525      505      508 1
     526      505      509 1
     527      505      510 1
     528      508      511 1
     529      508      512 1
     530      511      513 1
     531      511      514 1
     532      511      515 1
     533      513      516 1
     534      513      517 1
     535      513      518 1
     536      516      519 1
     537      516      520 1
     538      519      521 1
     539      519      522 1
     540      519      523 1
     541      521      524 1
     542      521      525 1
     543      521      526 1
     544      524      527 1
     545      524      535 1
     546      528      529 1
     547      528      532 1
     548      528      537 1
     549      529      533 1
     550      529      535 1
     551      530      533 1
     552      531      535 1
     553      532      538 1
     554      532      534 1
     555      533      536 1
     556      534      539 1
     557      534      828 1
     558      536      538 1
     559      536      540 1
     560      538      542 1
     561      540      541 1
     562      540      544 1
     563      544      545 1
     564      544      584 1
     565      545      546 1
     566      545      547 1
     567      545      548 1
     568      546      549 1
     569      546      550 1
     570      546      551 1
     571      549      552 1
     572      549      553 1
     573      552      554 1
     574      552      555 1
     575      552      556 1
     576      554      557 1
     577      554      558 1
     578      554      559 1
     579      557      560 1
     580      557      561 1
     581      560      562 1
     582      560      563 1
     583      560      564 1
     584      562      565 1
     585      562      566 1
     586      562      567 1
     587      565      568 1
     588      565      576 1
     589      569      570 1
     590      569      573 1
     591      569      578 1
     592      570      574 1
     593      570      576 1
     594      571      574 1
     595      572      576 1
     596      573      579 1
     597      573      575 1
     598      574      577 1
     599      575      580 1
     600      575      896 1
     601      577      579 1
     602      577      581 1
     603      579      583 1
     604      581      582 1
     605      581      585 1
     606      585      586 1
     607      585      626 1
     608      586      587 1
     609      586      588 1
     610      586      589 1
     611      587      590 1
     612      587      591 1
     613      587      592 1
     614      590      593 1
     615      590      594 1
     616      593      595 1
     617      593      596 1
     618      593      597 1
     619      595      598 1
     620      595      599 1
     621      595      600 1
     622      598      601 1
     623      598      602 1
     624      601      603 1
     625      601      604 1
     626      601      605 1
     627      603      606 1
     628      603      607 1
     629      603      608 1
     630      606      609 1
     631      606      617 1
     632      610      611 1
     633      610      614 1
     634      610      620 1
     635      611      615 1
     636      611      617 1
     637      612      615 1
     638      613      617 1
     639      614      621 1
     640      614      616 1
     641      615      618 1
     642      616      619 1
     643      616      622 1
     644      618      621 1
     645      618      623 1
     646      621      625 1
     647      623      624 1
     648      623      628 1
     649      629      630 1
     650      629      695 1
     651      630      631 1
     652      630      632 1
     653      630      633 1
     654      631      634 1
     655      631      635 1
     656      631      636 1
     657      634      637 1
     658      634      638 1
     659      637      639 1
     660      637      640 1
     661      637      641 1
     662      639      642 1
     663      639      643 1
     664      639      644 1
     665      642      645 1
     666      642      646 1
     667      645      647 1
     668      645      648 1
     669      645      649 1
     670      647      650 1
     671      647      651 1
     672      647      652 1
     673      650      653 1
     674      650      661 1
     675      654      655 1
     676      654      658 1
     677      654      664 1
     678      655      659 1
     679      655      661 1
     680      656      659 1
     681      657      661 1
     682      658      665 1
     683      658      660 1
     684      659      662 1
     685      660      663 1
     686      660      666 1
     687      662      665 1
     688      662      667 1
     689      665      669 1
     690      667      668 1
     691      667      670 1
     692      670      671 1
     693      670      672 1
     694      671      673 1
     695      671      674 1
     696      671      675 1
     697      673      676 1
     698      673      677 1
     699      673      678 1
     700      676      679 1
     701      676      680 1
     702      679      681 1
     703      679      682 1
     704      679      683 1
     705      681      684 1
     706      681      685 1
     707      681      686 1
     708      684      687 1
     709      684      688 1
     710      687      689 1
     711      687      690 1
     712      687      691 1
     713      689      692 1
     714      689      693 1
     715      689      694 1
     716      692      696 1
     717      697      698 1
     718      697      763 1
     719      698      699 1
     720      698      700 1
     721      698      701 1
     722      699      702 1
     723      699      703 1
     724      699      704 1
     725      702      705 1
     726      702      706 1
     727      705      707 1
     728      705      708 1
     729      705      709 1
     730      707      710 1
     731      707      711 1
     732      707      712 1
     733      710      713 1
     734      710      714 1
     735      713      715 1
     736      713      716 1
     737      713      717 1
     738      715      718 1
     739      715      719 1
     740      715      720 1
     741      718      721 1
     742      718      729 1
     743      722      723 1
     744      722      726 1
     745      722      732 1
     746      723      727 1
     747      723      729 1
     748      724      727 1
     749      725      729 1
     750      726      733 1
     751      726      728 1
     752      727      730 1
     753      728      731 1
     754      728      734 1
     755      730      733 1
     756      730      735 1
     757      733      737 1
     758      735      736 1
     759      735      738 1
     760      738      739 1
     761      738      740 1
     762      739      741 1
     763      739      742 1
     764      739      743 1
     765      741      744 1
     766      741      745 1
     767      741      746 1
     768      744      747 1
     769      744      748 1
     770      747      749 1
     771      747      750 1
     772      747      751 1
     773      749      752 1
     774      749      753 1
     775      749      754 1
     776      752      755 1
     777      752      756 1
     778      755      757 1
     779      755      758 1
     780      755      759 1
     781      757      760 1
     782      757      761 1
     783      757      762 1
     784      760      764 1
     785      765      766 1
     786      765      831 1
     787      766      767 1
     788      766      768 1
     789      766      769 1
     790      767      770 1
     791      767      771 1
     792      767      772 1
     793      770      773 1
     794      770      774 1
     795      773      775 1
     796      773      776 1
     797      773      777 1
     798      775      778 1
     799      775      779 1
     800      775      780 1
     801      778      781 1
     802      778      782 1
     803      781      783 1
     804      781      784 1
     805      781      785 1
     806      783      786 1
     807      783      787 1
     808      783      788 1
     809      786      789 1
     810      786      797 1
     811      790      791 1
     812      790      794 1
     813      790      800 1
     814      791      795 1
     815      791      797 1
     816      792      795 1
     817      793      797 1
     818      794      801 1
     819      794      796 1
     820      795      798 1
     821      796      799 1
     822      796      802 1
     823      798      801 1
     824      798      803 1
     825      801      805 1
     826      803      804 1
     827      803      806 1
     828      806      807 1
     829      806      808 1
     830      807      809 1
     831      807      810 1
     832      807      811 1
     833      809      812 1
     834      809      813 1
     835      809      814 1
     836      812      815 1
     837      812      816 1
     838      815      817 1
     839      815      818 1
     840      815      819 1
     841      817      820 1
     842      817      821 1
     843      817      822 1
     844      820      823 1
     845      820      824 1
     846      823      825 1
     847      823      826 1
     848      823      827 1
     849      825      828 1
     850      825      829 1
     851      825      830 1
     852      828      832 1
     853      833      834 1
     854      833      899 1
     855      834      835 1
     856      834      836 1
     857      834      837 1
     858      835      838 1
     859      835      839 1
     860      835      840 1
     861      838      841 1
     862      838      842 1
     863      841      843 1
     864      841      844 1
     865      841      845 1
     866      843      846 1
     867      843      847 1
     868      843      848 1
     869      846      849 1
     870      846      850 1
     871      849      851 1
     872      849      852 1
     873      849      853 1
     874      851      854 1
     875      851      855 1
     876      851      856 1
     877      854      857 1
     878      854      865 1
     879      858      859 1
     880      858      862 1
     881      858      868 1
     882      859      863 1
     883      859      865 1
     884      860      863 1
     885      861      865 1
     886      862      869 1
     887      862      864 1
     888      863      866 1
     889      864      867 1
     890      864      870 1
     891      866      869 1
     892      866      871 1
     893      869      873 1
     894      871      872 1
     895      871      874 1
     896      874      875 1
     897      874      876 1
     898      875      877 1
     899      875      878 1
     900      875      879 1
     901      877      880 1
     902      877      881 1
     903      877      882 1
     904      880      883 1
     905      880      884 1
     906      883      885 1
     907      883      886 1
     908      883      887 1
     909      885      888 1
     910      885      889 1
     911      885      890 1
     912      888      891 1
     913      888      892 1
     914      891      893 1
     915      891      894 1
     916      891      895 1
     917      893      896 1
     918      893      897 1
     919      893      898 1
     920      896      900 1
@<TRIPOS>SUBSTRUCTURE
       1 RES             1 RESIDUE    0 **** ROOT      0
