@<TRIPOS>MOLECULE
RES
732 748 1 0 1
SMALL
NO_CHARGES
@<TRIPOS>CRYSIN
   85.9627    73.3257    48.7495    90.0000    90.0000    90.0000 1 1
@<TRIPOS>ATOM
       1 N           11.0931    76.9362    19.0792 N             1 RES     
       2 C           12.9067    76.4360    19.0793 C             1 RES     
       3 C           14.5951    77.2072    19.0793 C             1 RES     
       4 H           12.9558    75.8202    19.9529 H             1 RES     
       5 H           12.9177    76.2983    18.0182 H             1 RES     
       6 N           16.2627    76.2275    19.0793 N             1 RES     
       7 H           14.6268    77.8241    18.2056 H             1 RES     
       8 H           14.6165    77.6241    20.0645 H             1 RES     
       9 C           18.0554    77.4782    19.0793 C             1 RES     
      10 H           16.2859    75.6333    19.9203 H             1 RES     
      11 C           19.5562    76.0816    19.0793 C             1 RES     
      12 H           18.0987    78.0944    18.2057 H             1 RES     
      13 H           18.1033    78.1607    19.9019 H             1 RES     
      14 N           21.4114    77.6032    19.0794 N             1 RES     
      15 H           19.5369    75.4641    19.9530 H             1 RES     
      16 H           19.5338    75.3641    18.2858 H             1 RES     
      17 C           23.0164    76.0816    19.0794 C             1 RES     
      18 H           21.4328    78.1975    18.2384 H             1 RES     
      19 C           24.4130    77.5615    19.0795 C             1 RES     
      20 H           23.0336    75.4640    19.9531 H             1 RES     
      21 H           23.0378    75.3153    18.3330 H             1 RES     
      22 N           26.0389    76.0399    19.0795 N             1 RES     
      23 H           24.3939    78.1790    18.2058 H             1 RES     
      24 H           24.3893    78.3257    19.8280 H             1 RES     
      25 H           25.9005    75.3896    18.2929 H             1 RES     
      26 C           30.2888    72.9594    19.0359 C             1 RES     
      27 C           30.3340    74.9170    18.9654 C             1 RES     
      28 H           31.9462    76.8846    18.8387 H             1 RES     
      29 O           29.1129    77.0930    18.9327 O             1 RES     
      30 C           31.7543    71.4444    19.0368 C             1 RES     
      31 C           31.9591    75.8153    18.8758 C             1 RES     
      32 C           31.7383    69.8402    19.0938 C             1 RES     
      33 C           29.0458    75.9902    18.9738 C             1 RES     
      34 C           33.6269    74.9414    18.8471 C             1 RES     
      35 H           29.2931    72.5708    19.0851 H             1 RES     
      36 C           33.6594    72.7317    18.9236 C             1 RES     
      37 O           31.6697    68.6750    19.1372 O             1 RES     
      38 C           34.8757    75.7862    18.7728 C             1 RES     
      39 O           34.6086    76.8553    18.7447 O             1 RES     
      40 H           34.6076    72.2363    18.9071 H             1 RES     
      41 H           10.0000    76.9668    19.0455 H             1 RES     
      42 N           36.9979    75.7347    18.6988 N             1 RES     
      43 C           37.5708    73.9769    18.3507 C             1 RES     
      44 C           37.0757    72.4900    17.3560 C             1 RES     
      45 H           38.5665    74.1454    17.9973 H             1 RES     
      46 H           37.1038    73.5989    19.2362 H             1 RES     
      47 N           38.0346    70.8108    17.3179 N             1 RES     
      48 H           36.0860    72.2459    17.6813 H             1 RES     
      49 H           37.2716    72.8463    16.3663 H             1 RES     
      50 C           37.1499    69.2843    16.0275 C             1 RES     
      51 H           38.9922    70.9954    16.9866 H             1 RES     
      52 C           38.4409    67.7107    16.2724 C             1 RES     
      53 H           36.1618    69.0293    16.3492 H             1 RES     
      54 H           37.0380    69.5941    15.0095 H             1 RES     
      55 N           37.3364    66.1585    14.8137 N             1 RES     
      56 H           39.4322    67.9431    15.9432 H             1 RES     
      57 H           38.6000    67.3824    17.2783 H             1 RES     
      58 C           38.7404    64.4723    15.0908 C             1 RES     
      59 H           36.3826    65.9321    15.1297 H             1 RES     
      60 C           37.6309    63.3443    13.8113 C             1 RES     
      61 H           39.7350    64.6706    14.7492 H             1 RES     
      62 H           38.9698    64.1127    16.0721 H             1 RES     
      63 N           39.0368    61.6385    14.0813 N             1 RES     
      64 H           36.6364    63.1478    14.1537 H             1 RES     
      65 H           37.4043    63.7065    12.8304 H             1 RES     
      66 H           39.1337    61.4292    15.0851 H             1 RES     
      67 C           41.9419    57.2739    14.3342 C             1 RES     
      68 C           40.2795    57.4452    13.3112 C             1 RES     
      69 H           38.7136    56.1323    11.7910 H             1 RES     
      70 O           38.3467    58.8403    12.5733 O             1 RES     
      71 C           43.3289    55.7194    14.6547 C             1 RES     
      72 C           39.6241    56.0032    12.3380 C             1 RES     
      73 C           44.6926    55.5592    15.4863 C             1 RES     
      74 C           39.2804    58.7833    13.1626 C             1 RES     
      75 C           40.4794    54.3271    12.2645 C             1 RES     
      76 CL          44.8142    54.4293    15.1393 CL            1 RES     
      77 H           42.2058    58.1751    14.8472 H             1 RES     
      78 C           42.3613    54.0547    13.3930 C             1 RES     
      79 O           45.6793    55.4968    16.1083 O             1 RES     
      80 C           39.8442    53.2359    11.4369 C             1 RES     
      81 O           38.9168    53.6059    10.9699 O             1 RES     
      82 H           42.8463    53.1019    13.3505 H             1 RES     
      83 H           36.8593    76.7503    19.0813 H             1 RES     
      84 N           40.0301    51.2191    10.7971 N             1 RES     
      85 C           41.3502    50.3551    11.8219 C             1 RES     
      86 C           41.9976    50.3095    13.5610 C             1 RES     
      87 H           41.1022    49.3267    11.6619 H             1 RES     
      88 H           42.1100    51.0394    11.5066 H             1 RES     
      89 N           43.4558    49.1964    14.1734 N             1 RES     
      90 H           42.2935    51.3139    13.7815 H             1 RES     
      91 H           41.1751    49.8418    14.0606 H             1 RES     
      92 C           43.9402    49.4128    16.2940 C             1 RES     
      93 H           43.2034    48.2128    14.0007 H             1 RES     
      94 C           45.4947    48.0952    16.5184 C             1 RES     
      95 H           44.2433    50.4131    16.5227 H             1 RES     
      96 H           43.1142    49.2182    16.9455 H             1 RES     
      97 N           45.8890    48.4585    18.8571 N             1 RES     
      98 H           45.2065    47.0866    16.3067 H             1 RES     
      99 H           46.3335    48.2393    15.8700 H             1 RES     
     100 C           47.5646    47.0322    19.0794 C             1 RES     
     101 H           46.1681    49.4284    19.0630 H             1 RES     
     102 C           47.7042    47.5108    21.0522 C             1 RES     
     103 H           47.2983    46.0124    18.8946 H             1 RES     
     104 H           48.4220    47.0987    18.4429 H             1 RES     
     105 N           49.3922    46.0781    21.2900 N             1 RES     
     106 H           47.9694    48.5312    21.2356 H             1 RES     
     107 H           46.8450    47.4422    21.6862 H             1 RES     
     108 H           50.1256    46.2941    20.5998 H             1 RES     
     109 C           53.4113    42.9149    22.4708 C             1 RES     
     110 C           52.5636    44.1530    23.7309 C             1 RES     
     111 H           52.6853    44.9567    26.1446 H             1 RES     
     112 O           50.8313    45.8866    24.2007 O             1 RES     
     113 C           54.9998    41.5348    22.5942 C             1 RES     
     114 C           53.1716    44.2699    25.4838 C             1 RES     
     115 C           55.7074    40.5143    21.5770 C             1 RES     
     116 C           51.2830    45.2008    23.4604 C             1 RES     
     117 C           54.5989    43.2425    26.1571 C             1 RES     
     118 CL          56.4669    40.1489    22.4147 CL            1 RES     
     119 H           52.9664    42.9466    21.4982 H             1 RES     
     120 C           55.6076    41.8215    24.7960 C             1 RES     
     121 O           56.1861    39.7890    20.7965 O             1 RES     
     122 C           54.9969    43.4311    27.6010 C             1 RES     
     123 O           54.3527    44.1893    28.0756 O             1 RES     
     124 H           56.4184    41.2384    25.1797 H             1 RES     
     125 H           39.3837    51.5981    10.0000 H             1 RES     
     126 N           56.3387    42.8015    29.1225 N             1 RES     
     127 C           57.7338    41.8006    28.3535 C             1 RES     
     128 C           58.7822    41.7645    26.8222 C             1 RES     
     129 H           58.4795    41.8553    29.1188 H             1 RES     
     130 H           57.0576    41.0679    27.9651 H             1 RES     
     131 N           60.1701    40.4677    26.4578 N             1 RES     
     132 H           58.0938    41.6820    26.0072 H             1 RES     
     133 H           59.3741    42.6429    26.9732 H             1 RES     
     134 C           61.1959    40.7420    24.5472 C             1 RES     
     135 H           60.8711    40.5278    27.2100 H             1 RES     
     136 C           62.5491    39.2021    24.5586 C             1 RES     
     137 H           60.5159    40.6551    23.7256 H             1 RES     
     138 H           61.6438    41.7071    24.4345 H             1 RES     
     139 N           63.5647    39.6507    22.4316 N             1 RES     
     140 H           63.2465    39.2797    25.3665 H             1 RES     
     141 H           62.1460    38.2199    24.6918 H             1 RES     
     142 C           65.0176    37.9835    22.4623 C             1 RES     
     143 H           62.8955    39.5749    21.6523 H             1 RES     
     144 C           65.7145    38.5634    20.6406 C             1 RES     
     145 H           65.7411    38.0482    23.2481 H             1 RES     
     146 H           64.6872    36.9785    22.6221 H             1 RES     
     147 N           67.1823    36.8889    20.6587 N             1 RES     
     148 H           64.9898    38.4993    19.8560 H             1 RES     
     149 H           66.0452    39.5690    20.4845 H             1 RES     
     150 H           66.6875    36.0003    20.8209 H             1 RES     
     151 C           70.8083    33.1354    20.0953 C             1 RES     
     152 C           70.3971    34.4955    18.7460 C             1 RES     
     153 H           71.0641    35.2774    16.4157 H             1 RES     
     154 O           69.0637    36.4819    18.0366 O             1 RES     
     155 C           72.1610    31.5227    20.2066 C             1 RES     
     156 C           71.3146    34.5205    17.1293 C             1 RES     
     157 C           72.5124    30.4005    21.2993 C             1 RES     
     158 C           69.2667    35.7313    18.8226 C             1 RES     
     159 C           72.6619    33.2832    16.6822 C             1 RES     
     160 CL          73.3417    29.9226    20.5950 CL            1 RES     
     161 H           70.2096    33.2339    20.9766 H             1 RES     
     162 C           73.1836    31.7169    18.1533 C             1 RES     
     163 O           72.7284    29.6065    22.1283 O             1 RES     
     164 C           73.3320    33.4112    15.3356 C             1 RES     
     165 O           72.9063    34.2628    14.7801 O             1 RES     
     166 H           73.9492    31.0145    17.8982 H             1 RES     
     167 H           55.5301    43.1886    29.7496 H             1 RES     
     168 N           74.8067    32.5826    14.0509 N             1 RES     
     169 C           75.3376    30.9015    14.7076 C             1 RES     
     170 C           74.6179    29.4093    15.5448 C             1 RES     
     171 H           75.7767    30.4633    13.8359 H             1 RES     
     172 H           75.6751    31.3172    15.6341 H             1 RES     
     173 N           75.6162    27.8329    16.0539 N             1 RES     
     174 H           74.1795    29.7740    16.4502 H             1 RES     
     175 H           74.0216    29.0115    14.7504 H             1 RES     
     176 C           74.4282    26.2740    17.0216 C             1 RES     
     177 H           76.0397    27.4329    15.2045 H             1 RES     
     178 C           75.8320    24.8249    17.3858 C             1 RES     
     179 H           73.9908    26.6280    17.9316 H             1 RES     
     180 H           73.6027    25.9342    16.4317 H             1 RES     
     181 N           74.3795    23.2250    18.4286 N             1 RES     
     182 H           76.2712    24.4489    16.4854 H             1 RES     
     183 H           76.6868    25.1275    17.9539 H             1 RES     
     184 C           75.9082    21.6737    18.8131 C             1 RES     
     185 H           73.9568    23.5843    19.2965 H             1 RES     
     186 C           74.4865    20.4889    19.6591 C             1 RES     
     187 H           76.3483    21.2645    17.9277 H             1 RES     
     188 H           76.8029    21.9143    19.3482 H             1 RES     
     189 N           76.0157    18.9186    20.0521 N             1 RES     
     190 H           74.0465    20.8999    20.5436 H             1 RES     
     191 H           73.5934    20.2495    19.1207 H             1 RES     
     192 H           76.8007    19.3280    20.5784 H             1 RES     
     193 C           79.1411    14.8847    21.2820 C             1 RES     
     194 C           77.2342    14.9876    21.7207 C             1 RES     
     195 H           75.3628    13.6870    22.8578 H             1 RES     
     196 O           75.0779    16.2412    21.6433 O             1 RES     
     197 C           80.6602    13.4604    21.6093 C             1 RES     
     198 C           76.4054    13.5971    22.6349 C             1 RES     
     199 C           82.2233    13.3573    21.2591 C             1 RES     
     200 C           76.1509    16.2205    21.3777 C             1 RES     
     201 C           77.3054    12.0386    23.1891 C             1 RES     
     202 H           79.4911    15.7484    20.7565 H             1 RES     
     203 C           79.4602    11.8476    22.7310 C             1 RES     
     204 O           83.3572    13.3333    20.9795 O             1 RES     
     205 C           76.5179    10.9814    23.9247 C             1 RES     
     206 O           75.4681    11.2990    24.0346 O             1 RES     
     207 H           79.9705    10.9616    23.0464 H             1 RES     
     208 H           74.7590    33.5936    13.6357 H             1 RES     
     209 H           10.9606    77.8275    18.4588 H             1 RES     
     210 H           76.5753    10.0000    24.4047 H             1 RES     
     211 N           11.0931    76.9362    31.0792 N             1 RES     
     212 C           12.9067    76.4360    31.0793 C             1 RES     
     213 C           14.5951    77.2072    31.0793 C             1 RES     
     214 H           12.9558    75.8202    31.9529 H             1 RES     
     215 H           12.9177    76.2983    30.0182 H             1 RES     
     216 N           16.2627    76.2275    31.0793 N             1 RES     
     217 H           14.6268    77.8241    30.2056 H             1 RES     
     218 H           14.6165    77.6241    32.0645 H             1 RES     
     219 C           18.0554    77.4782    31.0793 C             1 RES     
     220 H           16.2859    75.6333    31.9203 H             1 RES     
     221 C           19.5562    76.0816    31.0793 C             1 RES     
     222 H           18.0987    78.0944    30.2057 H             1 RES     
     223 H           18.1033    78.1607    31.9019 H             1 RES     
     224 N           21.4114    77.6032    31.0794 N             1 RES     
     225 H           19.5369    75.4641    31.9530 H             1 RES     
     226 H           19.5338    75.3641    30.2858 H             1 RES     
     227 C           23.0164    76.0816    31.0794 C             1 RES     
     228 H           21.4328    78.1975    30.2384 H             1 RES     
     229 C           24.4130    77.5615    31.0795 C             1 RES     
     230 H           23.0336    75.4640    31.9531 H             1 RES     
     231 H           23.0378    75.3153    30.3330 H             1 RES     
     232 N           26.0389    76.0399    31.0795 N             1 RES     
     233 H           24.3939    78.1790    30.2058 H             1 RES     
     234 H           24.3893    78.3257    31.8280 H             1 RES     
     235 H           25.9005    75.3896    30.2929 H             1 RES     
     236 C           30.2888    72.9594    31.0359 C             1 RES     
     237 C           30.3340    74.9170    30.9654 C             1 RES     
     238 H           31.9462    76.8846    30.8387 H             1 RES     
     239 O           29.1129    77.0930    30.9327 O             1 RES     
     240 C           31.7543    71.4444    31.0368 C             1 RES     
     241 C           31.9591    75.8153    30.8758 C             1 RES     
     242 C           31.7383    69.8402    31.0938 C             1 RES     
     243 C           29.0458    75.9902    30.9738 C             1 RES     
     244 C           33.6269    74.9414    30.8471 C             1 RES     
     245 H           29.2931    72.5708    31.0851 H             1 RES     
     246 C           33.6594    72.7317    30.9236 C             1 RES     
     247 O           31.6697    68.6750    31.1372 O             1 RES     
     248 C           34.8757    75.7862    30.7728 C             1 RES     
     249 O           34.6086    76.8553    30.7447 O             1 RES     
     250 H           34.6076    72.2363    30.9071 H             1 RES     
     251 H           10.0000    76.9668    31.0455 H             1 RES     
     252 N           36.9979    75.7347    30.6988 N             1 RES     
     253 C           37.5708    73.9769    30.3507 C             1 RES     
     254 C           37.0757    72.4900    29.3560 C             1 RES     
     255 H           38.5665    74.1454    29.9973 H             1 RES     
     256 H           37.1038    73.5989    31.2362 H             1 RES     
     257 N           38.0346    70.8108    29.3179 N             1 RES     
     258 H           36.0860    72.2459    29.6813 H             1 RES     
     259 H           37.2716    72.8463    28.3663 H             1 RES     
     260 C           37.1499    69.2843    28.0275 C             1 RES     
     261 H           38.9922    70.9954    28.9866 H             1 RES     
     262 C           38.4409    67.7107    28.2724 C             1 RES     
     263 H           36.1618    69.0293    28.3492 H             1 RES     
     264 H           37.0380    69.5941    27.0095 H             1 RES     
     265 N           37.3364    66.1585    26.8137 N             1 RES     
     266 H           39.4322    67.9431    27.9432 H             1 RES     
     267 H           38.6000    67.3824    29.2783 H             1 RES     
     268 C           38.7404    64.4723    27.0908 C             1 RES     
     269 H           36.3826    65.9321    27.1297 H             1 RES     
     270 C           37.6309    63.3443    25.8113 C             1 RES     
     271 H           39.7350    64.6706    26.7492 H             1 RES     
     272 H           38.9698    64.1127    28.0721 H             1 RES     
     273 N           39.0368    61.6385    26.0813 N             1 RES     
     274 H           36.6364    63.1478    26.1537 H             1 RES     
     275 H           37.4043    63.7065    24.8304 H             1 RES     
     276 H           39.1337    61.4292    27.0851 H             1 RES     
     277 C           41.9419    57.2739    26.3342 C             1 RES     
     278 C           40.2795    57.4452    25.3112 C             1 RES     
     279 H           38.7136    56.1323    23.7910 H             1 RES     
     280 O           38.3467    58.8403    24.5733 O             1 RES     
     281 C           43.3289    55.7194    26.6547 C             1 RES     
     282 C           39.6241    56.0032    24.3380 C             1 RES     
     283 C           44.6926    55.5592    27.4863 C             1 RES     
     284 C           39.2804    58.7833    25.1626 C             1 RES     
     285 C           40.4794    54.3271    24.2645 C             1 RES     
     286 H           42.2058    58.1751    26.8472 H             1 RES     
     287 C           42.3613    54.0547    25.3930 C             1 RES     
     288 O           45.6793    55.4968    28.1083 O             1 RES     
     289 C           39.8442    53.2359    23.4369 C             1 RES     
     290 O           38.9168    53.6059    22.9699 O             1 RES     
     291 H           42.8463    53.1019    25.3505 H             1 RES     
     292 H           36.8593    76.7503    31.0813 H             1 RES     
     293 N           40.0301    51.2191    22.7971 N             1 RES     
     294 C           41.3502    50.3551    23.8219 C             1 RES     
     295 C           41.9976    50.3095    25.5610 C             1 RES     
     296 H           41.1022    49.3267    23.6619 H             1 RES     
     297 H           42.1100    51.0394    23.5066 H             1 RES     
     298 N           43.4558    49.1964    26.1734 N             1 RES     
     299 H           42.2935    51.3139    25.7815 H             1 RES     
     300 H           41.1751    49.8418    26.0606 H             1 RES     
     301 C           43.9402    49.4128    28.2940 C             1 RES     
     302 H           43.2034    48.2128    26.0007 H             1 RES     
     303 C           45.4947    48.0952    28.5184 C             1 RES     
     304 H           44.2433    50.4131    28.5227 H             1 RES     
     305 H           43.1142    49.2182    28.9455 H             1 RES     
     306 N           45.8890    48.4585    30.8571 N             1 RES     
     307 H           45.2065    47.0866    28.3067 H             1 RES     
     308 H           46.3335    48.2393    27.8700 H             1 RES     
     309 C           47.5646    47.0322    31.0794 C             1 RES     
     310 H           46.1681    49.4284    31.0630 H             1 RES     
     311 C           47.7042    47.5108    33.0522 C             1 RES     
     312 H           47.2983    46.0124    30.8946 H             1 RES     
     313 H           48.4220    47.0987    30.4429 H             1 RES     
     314 N           49.3922    46.0781    33.2900 N             1 RES     
     315 H           47.9694    48.5312    33.2356 H             1 RES     
     316 H           46.8450    47.4422    33.6862 H             1 RES     
     317 H           50.1256    46.2941    32.5998 H             1 RES     
     318 C           53.4113    42.9149    34.4708 C             1 RES     
     319 C           52.5636    44.1530    35.7309 C             1 RES     
     320 H           52.6853    44.9567    38.1446 H             1 RES     
     321 O           50.8313    45.8866    36.2007 O             1 RES     
     322 C           54.9998    41.5348    34.5942 C             1 RES     
     323 C           53.1716    44.2699    37.4838 C             1 RES     
     324 C           55.7074    40.5143    33.5770 C             1 RES     
     325 C           51.2830    45.2008    35.4604 C             1 RES     
     326 C           54.5989    43.2425    38.1571 C             1 RES     
     327 H           52.9664    42.9466    33.4982 H             1 RES     
     328 C           55.6076    41.8215    36.7960 C             1 RES     
     329 O           56.1861    39.7890    32.7965 O             1 RES     
     330 C           54.9969    43.4311    39.6010 C             1 RES     
     331 O           54.3527    44.1893    40.0756 O             1 RES     
     332 H           56.4184    41.2384    37.1797 H             1 RES     
     333 H           39.3837    51.5981    22.0000 H             1 RES     
     334 N           56.3387    42.8015    41.1225 N             1 RES     
     335 C           57.7338    41.8006    40.3535 C             1 RES     
     336 C           58.7822    41.7645    38.8222 C             1 RES     
     337 H           58.4795    41.8553    41.1188 H             1 RES     
     338 H           57.0576    41.0679    39.9651 H             1 RES     
     339 N           60.1701    40.4677    38.4578 N             1 RES     
     340 H           58.0938    41.6820    38.0072 H             1 RES     
     341 H           59.3741    42.6429    38.9732 H             1 RES     
     342 C           61.1959    40.7420    36.5472 C             1 RES     
     343 H           60.8711    40.5278    39.2100 H             1 RES     
     344 C           62.5491    39.2021    36.5586 C             1 RES     
     345 H           60.5159    40.6551    35.7256 H             1 RES     
     346 H           61.6438    41.7071    36.4345 H             1 RES     
     347 N           63.5647    39.6507    34.4316 N             1 RES     
     348 H           63.2465    39.2797    37.3665 H             1 RES     
     349 H           62.1460    38.2199    36.6918 H             1 RES     
     350 C           65.0176    37.9835    34.4623 C             1 RES     
     351 H           62.8955    39.5749    33.6523 H             1 RES     
     352 C           65.7145    38.5634    32.6406 C             1 RES     
     353 H           65.7411    38.0482    35.2481 H             1 RES     
     354 H           64.6872    36.9785    34.6221 H             1 RES     
     355 N           67.1823    36.8889    32.6587 N             1 RES     
     356 H           64.9898    38.4993    31.8560 H             1 RES     
     357 H           66.0452    39.5690    32.4845 H             1 RES     
     358 H           66.6875    36.0003    32.8209 H             1 RES     
     359 C           70.8083    33.1354    32.0953 C             1 RES     
     360 C           70.3971    34.4955    30.7460 C             1 RES     
     361 H           71.0641    35.2774    28.4157 H             1 RES     
     362 O           69.0637    36.4819    30.0366 O             1 RES     
     363 C           72.1610    31.5227    32.2066 C             1 RES     
     364 C           71.3146    34.5205    29.1293 C             1 RES     
     365 C           72.5124    30.4005    33.2993 C             1 RES     
     366 C           69.2667    35.7313    30.8226 C             1 RES     
     367 C           72.6619    33.2832    28.6822 C             1 RES     
     368 CL          73.3417    29.9226    32.5950 CL            1 RES     
     369 H           70.2096    33.2339    32.9766 H             1 RES     
     370 C           73.1836    31.7169    30.1533 C             1 RES     
     371 O           72.7284    29.6065    34.1283 O             1 RES     
     372 C           73.3320    33.4112    27.3356 C             1 RES     
     373 O           72.9063    34.2628    26.7801 O             1 RES     
     374 H           73.9492    31.0145    29.8982 H             1 RES     
     375 H           55.5301    43.1886    41.7496 H             1 RES     
     376 N           74.8067    32.5826    26.0509 N             1 RES     
     377 C           75.3376    30.9015    26.7076 C             1 RES     
     378 C           74.6179    29.4093    27.5448 C             1 RES     
     379 H           75.7767    30.4633    25.8359 H             1 RES     
     380 H           75.6751    31.3172    27.6341 H             1 RES     
     381 N           75.6162    27.8329    28.0539 N             1 RES     
     382 H           74.1795    29.7740    28.4502 H             1 RES     
     383 H           74.0216    29.0115    26.7504 H             1 RES     
     384 C           74.4282    26.2740    29.0216 C             1 RES     
     385 H           76.0397    27.4329    27.2045 H             1 RES     
     386 C           75.8320    24.8249    29.3858 C             1 RES     
     387 H           73.9908    26.6280    29.9316 H             1 RES     
     388 H           73.6027    25.9342    28.4317 H             1 RES     
     389 N           74.3795    23.2250    30.4286 N             1 RES     
     390 H           76.2712    24.4489    28.4854 H             1 RES     
     391 H           76.6868    25.1275    29.9539 H             1 RES     
     392 C           75.9082    21.6737    30.8131 C             1 RES     
     393 H           73.9568    23.5843    31.2965 H             1 RES     
     394 C           74.4865    20.4889    31.6591 C             1 RES     
     395 H           76.3483    21.2645    29.9277 H             1 RES     
     396 H           76.8029    21.9143    31.3482 H             1 RES     
     397 N           76.0157    18.9186    32.0521 N             1 RES     
     398 H           74.0465    20.8999    32.5436 H             1 RES     
     399 H           73.5934    20.2495    31.1207 H             1 RES     
     400 H           76.8007    19.3280    32.5784 H             1 RES     
     401 C           79.1411    14.8847    33.2820 C             1 RES     
     402 C           77.2342    14.9876    33.7207 C             1 RES     
     403 H           75.3628    13.6870    34.8578 H             1 RES     
     404 O           75.0779    16.2412    33.6433 O             1 RES     
     405 C           80.6602    13.4604    33.6093 C             1 RES     
     406 C           76.4054    13.5971    34.6349 C             1 RES     
     407 C           82.2233    13.3573    33.2591 C             1 RES     
     408 C           76.1509    16.2205    33.3777 C             1 RES     
     409 C           77.3054    12.0386    35.1891 C             1 RES     
     410 H           79.4911    15.7484    32.7565 H             1 RES     
     411 C           79.4602    11.8476    34.7310 C             1 RES     
     412 O           83.3572    13.3333    32.9795 O             1 RES     
     413 C           76.5179    10.9814    35.9247 C             1 RES     
     414 O           75.4681    11.2990    36.0346 O             1 RES     
     415 H           79.9705    10.9616    35.0464 H             1 RES     
     416 H           74.7590    33.5936    25.6357 H             1 RES     
     417 H           10.9606    77.8275    30.4588 H             1 RES     
     418 H           76.5753    10.0000    36.4047 H             1 RES     
     419 N           11.0931    76.9362    43.0792 N             1 RES     
     420 C           12.9067    76.4360    43.0793 C             1 RES     
     421 C           14.5951    77.2072    43.0793 C             1 RES     
     422 H           12.9558    75.8202    43.9529 H             1 RES     
     423 H           12.9177    76.2983    42.0182 H             1 RES     
     424 N           16.2627    76.2275    43.0793 N             1 RES     
     425 H           14.6268    77.8241    42.2056 H             1 RES     
     426 H           14.6165    77.6241    44.0645 H             1 RES     
     427 C           18.0554    77.4782    43.0793 C             1 RES     
     428 H           16.2859    75.6333    43.9203 H             1 RES     
     429 C           19.5562    76.0816    43.0793 C             1 RES     
     430 H           18.0987    78.0944    42.2057 H             1 RES     
     431 H           18.1033    78.1607    43.9019 H             1 RES     
     432 N           21.4114    77.6032    43.0794 N             1 RES     
     433 H           19.5369    75.4641    43.9530 H             1 RES     
     434 H           19.5338    75.3641    42.2858 H             1 RES     
     435 C           23.0164    76.0816    43.0794 C             1 RES     
     436 H           21.4328    78.1975    42.2384 H             1 RES     
     437 C           24.4130    77.5615    43.0795 C             1 RES     
     438 H           23.0336    75.4640    43.9531 H             1 RES     
     439 H           23.0378    75.3153    42.3330 H             1 RES     
     440 N           26.0389    76.0399    43.0795 N             1 RES     
     441 H           24.3939    78.1790    42.2058 H             1 RES     
     442 H           24.3893    78.3257    43.8280 H             1 RES     
     443 H           25.9005    75.3896    42.2929 H             1 RES     
     444 C           30.2888    72.9594    43.0359 C             1 RES     
     445 C           30.3340    74.9170    42.9654 C             1 RES     
     446 H           31.9462    76.8846    42.8387 H             1 RES     
     447 O           29.1129    77.0930    42.9327 O             1 RES     
     448 C           31.7543    71.4444    43.0368 C             1 RES     
     449 C           31.9591    75.8153    42.8758 C             1 RES     
     450 C           31.7383    69.8402    43.0938 C             1 RES     
     451 C           29.0458    75.9902    42.9738 C             1 RES     
     452 C           33.6269    74.9414    42.8471 C             1 RES     
     453 CL          32.9248    69.7906    43.0532 CL            1 RES     
     454 H           29.2931    72.5708    43.0851 H             1 RES     
     455 C           33.6594    72.7317    42.9236 C             1 RES     
     456 O           31.6697    68.6750    43.1372 O             1 RES     
     457 C           34.8757    75.7862    42.7728 C             1 RES     
     458 O           34.6086    76.8553    42.7447 O             1 RES     
     459 H           34.6076    72.2363    42.9071 H             1 RES     
     460 H           10.0000    76.9668    43.0455 H             1 RES     
     461 N           36.9979    75.7347    42.6988 N             1 RES     
     462 C           37.5708    73.9769    42.3507 C             1 RES     
     463 C           37.0757    72.4900    41.3560 C             1 RES     
     464 H           38.5665    74.1454    41.9973 H             1 RES     
     465 H           37.1038    73.5989    43.2362 H             1 RES     
     466 N           38.0346    70.8108    41.3179 N             1 RES     
     467 H           36.0860    72.2459    41.6813 H             1 RES     
     468 H           37.2716    72.8463    40.3663 H             1 RES     
     469 C           37.1499    69.2843    40.0275 C             1 RES     
     470 H           38.9922    70.9954    40.9866 H             1 RES     
     471 C           38.4409    67.7107    40.2724 C             1 RES     
     472 H           36.1618    69.0293    40.3492 H             1 RES     
     473 H           37.0380    69.5941    39.0095 H             1 RES     
     474 N           37.3364    66.1585    38.8137 N             1 RES     
     475 H           39.4322    67.9431    39.9432 H             1 RES     
     476 H           38.6000    67.3824    41.2783 H             1 RES     
     477 C           38.7404    64.4723    39.0908 C             1 RES     
     478 H           36.3826    65.9321    39.1297 H             1 RES     
     479 C           37.6309    63.3443    37.8113 C             1 RES     
     480 H           39.7350    64.6706    38.7492 H             1 RES     
     481 H           38.9698    64.1127    40.0721 H             1 RES     
     482 N           39.0368    61.6385    38.0813 N             1 RES     
     483 H           36.6364    63.1478    38.1537 H             1 RES     
     484 H           37.4043    63.7065    36.8304 H             1 RES     
     485 H           39.1337    61.4292    39.0851 H             1 RES     
     486 C           41.9419    57.2739    38.3342 C             1 RES     
     487 C           40.2795    57.4452    37.3112 C             1 RES     
     488 H           38.7136    56.1323    35.7910 H             1 RES     
     489 O           38.3467    58.8403    36.5733 O             1 RES     
     490 C           43.3289    55.7194    38.6547 C             1 RES     
     491 C           39.6241    56.0032    36.3380 C             1 RES     
     492 C           44.6926    55.5592    39.4863 C             1 RES     
     493 C           39.2804    58.7833    37.1626 C             1 RES     
     494 C           40.4794    54.3271    36.2645 C             1 RES     
     495 H           42.2058    58.1751    38.8472 H             1 RES     
     496 C           42.3613    54.0547    37.3930 C             1 RES     
     497 O           45.6793    55.4968    40.1083 O             1 RES     
     498 C           39.8442    53.2359    35.4369 C             1 RES     
     499 O           38.9168    53.6059    34.9699 O             1 RES     
     500 H           42.8463    53.1019    37.3505 H             1 RES     
     501 H           36.8593    76.7503    43.0813 H             1 RES     
     502 N           40.0301    51.2191    34.7971 N             1 RES     
     503 C           41.3502    50.3551    35.8219 C             1 RES     
     504 C           41.9976    50.3095    37.5610 C             1 RES     
     505 H           41.1022    49.3267    35.6619 H             1 RES     
     506 H           42.1100    51.0394    35.5066 H             1 RES     
     507 N           43.4558    49.1964    38.1734 N             1 RES     
     508 H           42.2935    51.3139    37.7815 H             1 RES     
     509 H           41.1751    49.8418    38.0606 H             1 RES     
     510 C           43.9402    49.4128    40.2940 C             1 RES     
     511 H           43.2034    48.2128    38.0007 H             1 RES     
     512 C           45.4947    48.0952    40.5184 C             1 RES     
     513 H           44.2433    50.4131    40.5227 H             1 RES     
     514 H           43.1142    49.2182    40.9455 H             1 RES     
     515 N           45.8890    48.4585    42.8571 N             1 RES     
     516 H           45.2065    47.0866    40.3067 H             1 RES     
     517 H           46.3335    48.2393    39.8700 H             1 RES     
     518 C           47.5646    47.0322    43.0794 C             1 RES     
     519 H           46.1681    49.4284    43.0630 H             1 RES     
     520 C           47.7042    47.5108    45.0522 C             1 RES     
     521 H           47.2983    46.0124    42.8946 H             1 RES     
     522 H           48.4220    47.0987    42.4429 H             1 RES     
     523 N           49.3922    46.0781    45.2900 N             1 RES     
     524 H           47.9694    48.5312    45.2356 H             1 RES     
     525 H           46.8450    47.4422    45.6862 H             1 RES     
     526 H           50.1256    46.2941    44.5998 H             1 RES     
     527 C           53.4113    42.9149    46.4708 C             1 RES     
     528 C           52.5636    44.1530    47.7309 C             1 RES     
     529 H           52.6853    44.9567    50.1446 H             1 RES     
     530 O           50.8313    45.8866    48.2007 O             1 RES     
     531 C           54.9998    41.5348    46.5942 C             1 RES     
     532 C           53.1716    44.2699    49.4838 C             1 RES     
     533 C           55.7074    40.5143    45.5770 C             1 RES     
     534 C           51.2830    45.2008    47.4604 C             1 RES     
     535 C           54.5989    43.2425    50.1571 C             1 RES     
     536 H           52.9664    42.9466    45.4982 H             1 RES     
     537 C           55.6076    41.8215    48.7960 C             1 RES     
     538 O           56.1861    39.7890    44.7965 O             1 RES     
     539 C           54.9969    43.4311    51.6010 C             1 RES     
     540 O           54.3527    44.1893    52.0756 O             1 RES     
     541 H           56.4184    41.2384    49.1797 H             1 RES     
     542 H           39.3837    51.5981    34.0000 H             1 RES     
     543 N           56.3387    42.8015    53.1225 N             1 RES     
     544 C           57.7338    41.8006    52.3535 C             1 RES     
     545 C           58.7822    41.7645    50.8222 C             1 RES     
     546 H           58.4795    41.8553    53.1188 H             1 RES     
     547 H           57.0576    41.0679    51.9651 H             1 RES     
     548 N           60.1701    40.4677    50.4578 N             1 RES     
     549 H           58.0938    41.6820    50.0072 H             1 RES     
     550 H           59.3741    42.6429    50.9732 H             1 RES     
     551 C           61.1959    40.7420    48.5472 C             1 RES     
     552 H           60.8711    40.5278    51.2100 H             1 RES     
     553 C           62.5491    39.2021    48.5586 C             1 RES     
     554 H           60.5159    40.6551    47.7256 H             1 RES     
     555 H           61.6438    41.7071    48.4345 H             1 RES     
     556 N           63.5647    39.6507    46.4316 N             1 RES     
     557 H           63.2465    39.2797    49.3665 H             1 RES     
     558 H           62.1460    38.2199    48.6918 H             1 RES     
     559 C           65.0176    37.9835    46.4623 C             1 RES     
     560 H           62.8955    39.5749    45.6523 H             1 RES     
     561 C           65.7145    38.5634    44.6406 C             1 RES     
     562 H           65.7411    38.0482    47.2481 H             1 RES     
     563 H           64.6872    36.9785    46.6221 H             1 RES     
     564 N           67.1823    36.8889    44.6587 N             1 RES     
     565 H           64.9898    38.4993    43.8560 H             1 RES     
     566 H           66.0452    39.5690    44.4845 H             1 RES     
     567 H           66.6875    36.0003    44.8209 H             1 RES     
     568 C           70.8083    33.1354    44.0953 C             1 RES     
     569 C           70.3971    34.4955    42.7460 C             1 RES     
     570 H           71.0641    35.2774    40.4157 H             1 RES     
     571 O           69.0637    36.4819    42.0366 O             1 RES     
     572 C           72.1610    31.5227    44.2066 C             1 RES     
     573 C           71.3146    34.5205    41.1293 C             1 RES     
     574 C           72.5124    30.4005    45.2993 C             1 RES     
     575 C           69.2667    35.7313    42.8226 C             1 RES     
     576 C           72.6619    33.2832    40.6822 C             1 RES     
     577 CL          73.3417    29.9226    44.5950 CL            1 RES     
     578 H           70.2096    33.2339    44.9766 H             1 RES     
     579 C           73.1836    31.7169    42.1533 C             1 RES     
     580 O           72.7284    29.6065    46.1283 O             1 RES     
     581 C           73.3320    33.4112    39.3356 C             1 RES     
     582 O           72.9063    34.2628    38.7801 O             1 RES     
     583 H           73.9492    31.0145    41.8982 H             1 RES     
     584 H           55.5301    43.1886    53.7496 H             1 RES     
     585 N           74.8067    32.5826    38.0509 N             1 RES     
     586 C           75.3376    30.9015    38.7076 C             1 RES     
     587 C           74.6179    29.4093    39.5448 C             1 RES     
     588 H           75.7767    30.4633    37.8359 H             1 RES     
     589 H           75.6751    31.3172    39.6341 H             1 RES     
     590 N           75.6162    27.8329    40.0539 N             1 RES     
     591 H           74.1795    29.7740    40.4502 H             1 RES     
     592 H           74.0216    29.0115    38.7504 H             1 RES     
     593 C           74.4282    26.2740    41.0216 C             1 RES     
     594 H           76.0397    27.4329    39.2045 H             1 RES     
     595 C           75.8320    24.8249    41.3858 C             1 RES     
     596 H           73.9908    26.6280    41.9316 H             1 RES     
     597 H           73.6027    25.9342    40.4317 H             1 RES     
     598 N           74.3795    23.2250    42.4286 N             1 RES     
     599 H           76.2712    24.4489    40.4854 H             1 RES     
     600 H           76.6868    25.1275    41.9539 H             1 RES     
     601 C           75.9082    21.6737    42.8131 C             1 RES     
     602 H           73.9568    23.5843    43.2965 H             1 RES     
     603 C           74.4865    20.4889    43.6591 C             1 RES     
     604 H           76.3483    21.2645    41.9277 H             1 RES     
     605 H           76.8029    21.9143    43.3482 H             1 RES     
     606 N           76.0157    18.9186    44.0521 N             1 RES     
     607 H           74.0465    20.8999    44.5436 H             1 RES     
     608 H           73.5934    20.2495    43.1207 H             1 RES     
     609 H           76.8007    19.3280    44.5784 H             1 RES     
     610 C           79.1411    14.8847    45.2820 C             1 RES     
     611 C           77.2342    14.9876    45.7207 C             1 RES     
     612 H           75.3628    13.6870    46.8578 H             1 RES     
     613 O           75.0779    16.2412    45.6433 O             1 RES     
     614 C           80.6602    13.4604    45.6093 C             1 RES     
     615 C           76.4054    13.5971    46.6349 C             1 RES     
     616 C           82.2233    13.3573    45.2591 C             1 RES     
     617 C           76.1509    16.2205    45.3777 C             1 RES     
     618 C           77.3054    12.0386    47.1891 C             1 RES     
     619 CL          82.3059    12.2904    45.7757 CL            1 RES     
     620 H           79.4911    15.7484    44.7565 H             1 RES     
     621 C           79.4602    11.8476    46.7310 C             1 RES     
     622 O           83.3572    13.3333    44.9795 O             1 RES     
     623 C           76.5179    10.9814    47.9247 C             1 RES     
     624 O           75.4681    11.2990    48.0346 O             1 RES     
     625 H           79.9705    10.9616    47.0464 H             1 RES     
     626 H           74.7590    33.5936    37.6357 H             1 RES     
     627 H           10.9606    77.8275    42.4588 H             1 RES     
     628 H           76.5753    10.0000    48.4047 H             1 RES     
     629 N           25.5205    70.6186    31.5038 N             1 RES     
     630 C           26.7659    70.1451    30.1756 C             1 RES     
     631 C           28.5288    70.4735    29.6966 C             1 RES     
     632 H           26.7639    69.0781    30.2551 H             1 RES     
     633 H           26.3941    70.8840    29.4968 H             1 RES     
     634 N           29.4203    69.7150    28.1569 N             1 RES     
     635 H           28.5977    71.5340    29.5722 H             1 RES     
     636 H           29.0411    69.9644    30.4861 H             1 RES     
     637 C           31.5030    70.3323    27.9128 C             1 RES     
     638 H           29.3980    68.6891    28.2461 H             1 RES     
     639 C           32.0540    69.3295    26.2118 C             1 RES     
     640 H           31.5810    71.3912    27.7815 H             1 RES     
     641 H           32.1185    70.1124    28.7599 H             1 RES     
     642 N           34.3202    70.1095    26.0984 N             1 RES     
     643 H           31.9950    68.2674    26.3288 H             1 RES     
     644 H           31.4509    69.5026    25.3450 H             1 RES     
     645 C           34.8958    69.0196    24.2621 C             1 RES     
     646 H           34.3792    71.1315    25.9841 H             1 RES     
     647 C           36.7650    69.8148    24.3817 C             1 RES     
     648 H           34.8667    67.9543    24.3585 H             1 RES     
     649 H           34.3188    69.1219    23.3669 H             1 RES     
     650 N           37.3578    68.7231    22.5335 N             1 RES     
     651 H           36.7924    70.8802    24.2863 H             1 RES     
     652 H           37.3397    69.7098    25.2781 H             1 RES     
     653 H           38.7644    68.6090    21.6236 H             1 RES     
     654 H           24.2622    70.7347    32.3374 H             1 RES     
     655 N           74.8260    11.3957    25.6418 N             1 RES     
     656 C           76.6550    11.6846    25.9741 C             1 RES     
     657 C           78.1502    12.4219    25.1578 C             1 RES     
     658 H           76.6185    12.2393    26.8883 H             1 RES     
     659 H           76.9161    10.6940    25.6650 H             1 RES     
     660 N           79.9193    12.4905    25.9364 N             1 RES     
     661 H           78.2643    11.8888    24.2371 H             1 RES     
     662 H           77.8896    13.4594    25.1796 H             1 RES     
     663 C           81.4343    13.4369    24.6766 C             1 RES     
     664 H           79.8611    13.0176    26.8194 H             1 RES     
     665 C           83.1129    13.3036    25.8460 C             1 RES     
     666 H           81.5597    12.9067    23.7558 H             1 RES     
     667 H           81.1895    14.4378    24.3884 H             1 RES     
     668 N           84.6425    14.3692    24.3354 N             1 RES     
     669 H           83.0107    13.8397    26.7664 H             1 RES     
     670 H           83.3818    12.3220    26.1762 H             1 RES     
     671 C           86.4423    14.2161    25.6115 C             1 RES     
     672 H           84.7435    13.8539    23.4493 H             1 RES     
     673 C           87.5377    15.1449    24.1699 C             1 RES     
     674 H           86.3754    14.7618    26.5295 H             1 RES     
     675 H           86.7516    13.2693    26.0024 H             1 RES     
     676 N           89.3577    14.9973    25.4446 N             1 RES     
     677 H           87.6029    14.5987    23.2521 H             1 RES     
     678 H           87.2262    16.0922    23.7819 H             1 RES     
     679 H           90.9627    15.4619    25.2779 H             1 RES     
     680 H           73.3749    10.9848    25.7727 H             1 RES     
     681 N           37.8717    57.7118    38.2353 N             1 RES     
     682 C           39.7022    57.5200    37.8456 C             1 RES     
     683 C           40.8316    56.4960    36.7868 C             1 RES     
     684 H           39.9553    58.5100    37.5284 H             1 RES     
     685 H           39.8685    56.9022    38.7033 H             1 RES     
     686 N           42.7563    56.6749    36.7211 N             1 RES     
     687 H           40.6491    55.4814    37.0736 H             1 RES     
     688 H           40.5707    56.8628    35.8160 H             1 RES     
     689 C           43.7548    55.2924    35.3537 C             1 RES     
     690 H           42.9794    57.6360    36.4254 H             1 RES     
     691 C           45.7262    55.8054    35.5845 C             1 RES     
     692 H           43.5829    54.2750    35.6365 H             1 RES     
     693 H           43.4080    55.3612    34.3439 H             1 RES     
     694 N           46.6539    54.2194    34.0414 N             1 RES     
     695 H           45.9198    56.8168    35.2934 H             1 RES     
     696 H           46.1091    55.7725    36.5831 H             1 RES     
     697 C           48.7752    54.7872    34.3039 C             1 RES     
     698 H           46.4700    53.2451    34.3206 H             1 RES     
     699 C           49.3181    53.3647    32.9541 C             1 RES     
     700 H           49.0010    55.7879    33.9994 H             1 RES     
     701 H           49.2153    54.8062    35.2790 H             1 RES     
     702 N           51.4579    53.9263    33.2088 N             1 RES     
     703 H           49.0907    52.3646    33.2593 H             1 RES     
     704 H           48.8768    53.3492    31.9795 H             1 RES     
     705 H           52.9096    53.3926    32.5551 H             1 RES     
     706 H           36.5525    58.1784    38.8130 H             1 RES     
     707 N           49.6138    45.0707    38.4837 N             1 RES     
     708 C           51.3193    44.3535    38.1426 C             1 RES     
     709 C           52.2066    42.7232    38.1606 C             1 RES     
     710 H           51.4851    44.6730    37.1351 H             1 RES     
     711 H           51.6750    44.6116    39.1183 H             1 RES     
     712 N           54.0691    42.4683    37.7062 N             1 RES     
     713 H           52.1036    42.3535    39.1595 H             1 RES     
     714 H           51.7374    42.2393    37.3296 H             1 RES     
     715 C           54.7666    40.4011    37.8424 C             1 RES     
     716 H           54.2106    42.7916    36.7385 H             1 RES     
     717 C           56.7345    40.5724    37.2938 C             1 RES     
     718 H           54.6731    40.0249    38.8396 H             1 RES     
     719 H           54.2091    39.7186    37.2358 H             1 RES     
     720 N           57.3276    38.2564    37.4963 N             1 RES     
     721 H           56.8476    40.9350    36.2934 H             1 RES     
     722 H           57.3245    41.2624    37.8602 H             1 RES     
     723 C           59.4480    38.4614    36.9019 C             1 RES     
     724 H           57.2210    37.9057    38.4589 H             1 RES     
     725 C           59.7050    36.4575    37.1451 C             1 RES     
     726 H           59.5897    38.8018    35.8974 H             1 RES     
     727 H           60.0880    39.1556    37.4052 H             1 RES     
     728 N           61.8418    36.6498    36.5484 N             1 RES     
     729 H           59.5619    36.1184    38.1498 H             1 RES     
     730 H           59.0639    35.7660    36.6395 H             1 RES     
     731 H           63.1249    35.5806    36.3742 H             1 RES     
     732 H           48.4446    46.0184    38.6467 H             1 RES     
@<TRIPOS>BOND
       1        1        2 1
       2        1       41 1
       3        1      209 1
       4        2        3 1
       5        2        4 1
       6        2        5 1
       7        3        6 1
       8        3        7 1
       9        3        8 1
      10        6        9 1
      11        6       10 1
      12        9       11 1
      13        9       12 1
      14        9       13 1
      15       11       14 1
      16       11       15 1
      17       11       16 1
      18       14       17 1
      19       14       18 1
      20       17       19 1
      21       17       20 1
      22       17       21 1
      23       19       22 1
      24       19       23 1
      25       19       24 1
      26       22       25 1
      27       22       33 1
      28       26       27 1
      29       26       30 1
      30       26       35 1
      31       27       31 1
      32       27       33 1
      33       28       31 1
      34       29       33 1
      35       30       36 1
      36       30       32 1
      37       31       34 1
      38       32       37 1
      39       32      629 1
      40       34       36 1
      41       34       38 1
      42       36       40 1
      43       38       39 1
      44       38       42 1
      45       42       43 1
      46       42       83 1
      47       43       44 1
      48       43       45 1
      49       43       46 1
      50       44       47 1
      51       44       48 1
      52       44       49 1
      53       47       50 1
      54       47       51 1
      55       50       52 1
      56       50       53 1
      57       50       54 1
      58       52       55 1
      59       52       56 1
      60       52       57 1
      61       55       58 1
      62       55       59 1
      63       58       60 1
      64       58       61 1
      65       58       62 1
      66       60       63 1
      67       60       64 1
      68       60       65 1
      69       63       66 1
      70       63       74 1
      71       67       68 1
      72       67       71 1
      73       67       77 1
      74       68       72 1
      75       68       74 1
      76       69       72 1
      77       70       74 1
      78       71       78 1
      79       71       73 1
      80       72       75 1
      81       73       76 1
      82       73       79 1
      83       75       78 1
      84       75       80 1
      85       78       82 1
      86       80       81 1
      87       80       84 1
      88       84       85 1
      89       84      125 1
      90       85       86 1
      91       85       87 1
      92       85       88 1
      93       86       89 1
      94       86       90 1
      95       86       91 1
      96       89       92 1
      97       89       93 1
      98       92       94 1
      99       92       95 1
     100       92       96 1
     101       94       97 1
     102       94       98 1
     103       94       99 1
     104       97      100 1
     105       97      101 1
     106      100      102 1
     107      100      103 1
     108      100      104 1
     109      102      105 1
     110      102      106 1
     111      102      107 1
     112      105      108 1
     113      105      116 1
     114      109      110 1
     115      109      113 1
     116      109      119 1
     117      110      114 1
     118      110      116 1
     119      111      114 1
     120      112      116 1
     121      113      120 1
     122      113      115 1
     123      114      117 1
     124      115      118 1
     125      115      121 1
     126      117      120 1
     127      117      122 1
     128      120      124 1
     129      122      123 1
     130      122      126 1
     131      126      127 1
     132      126      167 1
     133      127      128 1
     134      127      129 1
     135      127      130 1
     136      128      131 1
     137      128      132 1
     138      128      133 1
     139      131      134 1
     140      131      135 1
     141      134      136 1
     142      134      137 1
     143      134      138 1
     144      136      139 1
     145      136      140 1
     146      136      141 1
     147      139      142 1
     148      139      143 1
     149      142      144 1
     150      142      145 1
     151      142      146 1
     152      144      147 1
     153      144      148 1
     154      144      149 1
     155      147      150 1
     156      147      158 1
     157      151      152 1
     158      151      155 1
     159      151      161 1
     160      152      156 1
     161      152      158 1
     162      153      156 1
     163      154      158 1
     164      155      162 1
     165      155      157 1
     166      156      159 1
     167      157      160 1
     168      157      163 1
     169      159      162 1
     170      159      164 1
     171      162      166 1
     172      164      165 1
     173      164      168 1
     174      168      169 1
     175      168      208 1
     176      169      170 1
     177      169      171 1
     178      169      172 1
     179      170      173 1
     180      170      174 1
     181      170      175 1
     182      173      176 1
     183      173      177 1
     184      176      178 1
     185      176      179 1
     186      176      180 1
     187      178      181 1
     188      178      182 1
     189      178      183 1
     190      181      184 1
     191      181      185 1
     192      184      186 1
     193      184      187 1
     194      184      188 1
     195      186      189 1
     196      186      190 1
     197      186      191 1
     198      189      192 1
     199      189      200 1
     200      193      194 1
     201      193      197 1
     202      193      202 1
     203      194      198 1
     204      194      200 1
     205      195      198 1
     206      196      200 1
     207      197      203 1
     208      197      199 1
     209      198      201 1
     210      199      204 1
     211      199      655 1
     212      201      203 1
     213      201      205 1
     214      203      207 1
     215      205      206 1
     216      205      210 1
     217      211      212 1
     218      211      251 1
     219      211      417 1
     220      212      213 1
     221      212      214 1
     222      212      215 1
     223      213      216 1
     224      213      217 1
     225      213      218 1
     226      216      219 1
     227      216      220 1
     228      219      221 1
     229      219      222 1
     230      219      223 1
     231      221      224 1
     232      221      225 1
     233      221      226 1
     234      224      227 1
     235      224      228 1
     236      227      229 1
     237      227      230 1
     238      227      231 1
     239      229      232 1
     240      229      233 1
     241      229      234 1
     242      232      235 1
     243      232      243 1
     244      236      237 1
     245      236      240 1
     246      236      245 1
     247      237      241 1
     248      237      243 1
     249      238      241 1
     250      239      243 1
     251      240      246 1
     252      240      242 1
     253      241      244 1
     254      242      247 1
     255      242      650 1
     256      244      246 1
     257      244      248 1
     258      246      250 1
     259      248      249 1
     260      248      252 1
     261      252      253 1
     262      252      292 1
     263      253      254 1
     264      253      255 1
     265      253      256 1
     266      254      257 1
     267      254      258 1
     268      254      259 1
     269      257      260 1
     270      257      261 1
     271      260      262 1
     272      260      263 1
     273      260      264 1
     274      262      265 1
     275      262      266 1
     276      262      267 1
     277      265      268 1
     278      265      269 1
     279      268      270 1
     280      268      271 1
     281      268      272 1
     282      270      273 1
     283      270      274 1
     284      270      275 1
     285      273      276 1
     286      273      284 1
     287      277      278 1
     288      277      281 1
     289      277      286 1
     290      278      282 1
     291      278      284 1
     292      279      282 1
     293      280      284 1
     294      281      287 1
     295      281      283 1
     296      282      285 1
     297      283      288 1
     298      283      681 1
     299      285      287 1
     300      285      289 1
     301      287      291 1
     302      289      290 1
     303      289      293 1
     304      293      294 1
     305      293      333 1
     306      294      295 1
     307      294      296 1
     308      294      297 1
     309      295      298 1
     310      295      299 1
     311      295      300 1
     312      298      301 1
     313      298      302 1
     314      301      303 1
     315      301      304 1
     316      301      305 1
     317      303      306 1
     318      303      307 1
     319      303      308 1
     320      306      309 1
     321      306      310 1
     322      309      311 1
     323      309      312 1
     324      309      313 1
     325      311      314 1
     326      311      315 1
     327      311      316 1
     328      314      317 1
     329      314      325 1
     330      318      319 1
     331      318      322 1
     332      318      327 1
     333      319      323 1
     334      319      325 1
     335      320      323 1
     336      321      325 1
     337      322      328 1
     338      322      324 1
     339      323      326 1
     340      324      329 1
     341      324      707 1
     342      326      328 1
     343      326      330 1
     344      328      332 1
     345      330      331 1
     346      330      334 1
     347      334      335 1
     348      334      375 1
     349      335      336 1
     350      335      337 1
     351      335      338 1
     352      336      339 1
     353      336      340 1
     354      336      341 1
     355      339      342 1
     356      339      343 1
     357      342      344 1
     358      342      345 1
     359      342      346 1
     360      344      347 1
     361      344      348 1
     362      344      349 1
     363      347      350 1
     364      347      351 1
     365      350      352 1
     366      350      353 1
     367      350      354 1
     368      352      355 1
     369      352      356 1
     370      352      357 1
     371      355      358 1
     372      355      366 1
     373      359      360 1
     374      359      363 1
     375      359      369 1
     376      360      364 1
     377      360      366 1
     378      361      364 1
     379      362      366 1
     380      363      370 1
     381      363      365 1
     382      364      367 1
     383      365      368 1
     384      365      371 1
     385      367      370 1
     386      367      372 1
     387      370      374 1
     388      372      373 1
     389      372      376 1
     390      376      377 1
     391      376      416 1
     392      377      378 1
     393      377      379 1
     394      377      380 1
     395      378      381 1
     396      378      382 1
     397      378      383 1
     398      381      384 1
     399      381      385 1
     400      384      386 1
     401      384      387 1
     402      384      388 1
     403      386      389 1
     404      386      390 1
     405      386      391 1
     406      389      392 1
     407      389      393 1
     408      392      394 1
     409      392      395 1
     410      392      396 1
     411      394      397 1
     412      394      398 1
     413      394      399 1
     414      397      400 1
     415      397      408 1
     416      401      402 1
     417      401      405 1
     418      401      410 1
     419      402      406 1
     420      402      408 1
     421      403      406 1
     422      404      408 1
     423      405      411 1
     424      405      407 1
     425      406      409 1
     426      407      412 1
     427      407      676 1
     428      409      411 1
     429      409      413 1
     430      411      415 1
     431      413      414 1
     432      413      418 1
     433      419      420 1
     434      419      460 1
     435      419      627 1
     436      420      421 1
     437      420      422 1
     438      420      423 1
     439      421      424 1
     440      421      425 1
     441      421      426 1
     442      424      427 1
     443      424      428 1
     444      427      429 1
     445      427      430 1
     446      427      431 1
     447      429      432 1
     448      429      433 1
     449      429      434 1
     450      432      435 1
     451      432      436 1
     452      435      437 1
     453      435      438 1
     454      435      439 1
     455      437      440 1
     456      437      441 1
     457      437      442 1
     458      440      443 1
     459      440      451 1
     460      444      445 1
     461      444      448 1
     462      444      454 1
     463      445      449 1
     464      445      451 1
     465      446      449 1
     466      447      451 1
     467      448      455 1
     468      448      450 1
     469      449      452 1
     470      450      453 1
     471      450      456 1
     472      452      455 1
     473      452      457 1
     474      455      459 1
     475      457      458 1
     476      457      461 1
     477      461      462 1
     478      461      501 1
     479      462      463 1
     480      462      464 1
     481      462      465 1
     482      463      466 1
     483      463      467 1
     484      463      468 1
     485      466      469 1
     486      466      470 1
     487      469      471 1
     488      469      472 1
     489      469      473 1
     490      471      474 1
     491      471      475 1
     492      471      476 1
     493      474      477 1
     494      474      478 1
     495      477      479 1
     496      477      480 1
     497      477      481 1
     498      479      482 1
     499      479      483 1
     500      479      484 1
     501      482      485 1
     502      482      493 1
     503      486      487 1
     504      486      490 1
     505      486      495 1
     506      487      491 1
     507      487      493 1
     508      488      491 1
     509      489      493 1
     510      490      496 1
     511      490      492 1
     512      491      494 1
     513      492      497 1
     514      492      702 1
     515      494      496 1
     516      494      498 1
     517      496      500 1
     518      498      499 1
     519      498      502 1
     520      502      503 1
     521      502      542 1
     522      503      504 1
     523      503      505 1
     524      503      506 1
     525      504      507 1
     526      504      508 1
     527      504      509 1
     528      507      510 1
     529      507      511 1
     530      510      512 1
     531      510      513 1
     532      510      514 1
     533      512      515 1
     534      512      516 1
     535      512      517 1
     536      515      518 1
     537      515      519 1
     538      518      520 1
     539      518      521 1
     540      518      522 1
     541      520      523 1
     542      520      524 1
     543      520      525 1
     544      523      526 1
     545      523      534 1
     546      527      528 1
     547      527      531 1
     548      527      536 1
     549      528      532 1
     550      528      534 1
     551      529      532 1
     552      530      534 1
     553      531      537 1
     554      531      533 1
     555      532      535 1
     556      533      538 1
     557      533      728 1
     558      535      537 1
     559      535      539 1
     560      537      541 1
     561      539      540 1
     562      539      543 1
     563      543      544 1
     564      543      584 1
     565      544      545 1
     566      544      546 1
     567      544      547 1
     568      545      548 1
     569      545      549 1
     570      545      550 1
     571      548      551 1
     572      548      552 1
     573      551      553 1
     574      551      554 1
     575      551      555 1
     576      553      556 1
     577      553      557 1
     578      553      558 1
     579      556      559 1
     580      556      560 1
     581      559      561 1
     582      559      562 1
     583      559      563 1
     584      561      564 1
     585      561      565 1
     586      561      566 1
     587      564      567 1
     588      564      575 1
     589      568      569 1
     590      568      572 1
     591      568      578 1
     592      569      573 1
     593      569      575 1
     594      570      573 1
     595      571      575 1
     596      572      579 1
     597      572      574 1
     598      573      576 1
     599      574      577 1
     600      574      580 1
     601      576      579 1
     602      576      581 1
     603      579      583 1
     604      581      582 1
     605      581      585 1
     606      585      586 1
     607      585      626 1
     608      586      587 1
     609      586      588 1
     610      586      589 1
     611      587      590 1
     612      587      591 1
     613      587      592 1
     614      590      593 1
     615      590      594 1
     616      593      595 1
     617      593      596 1
     618      593      597 1
     619      595      598 1
     620      595      599 1
     621      595      600 1
     622      598      601 1
     623      598      602 1
     624      601      603 1
     625      601      604 1
     626      601      605 1
     627      603      606 1
     628      603      607 1
     629      603      608 1
     630      606      609 1
     631      606      617 1
     632      610      611 1
     633      610      614 1
     634      610      620 1
     635      611      615 1
     636      611      617 1
     637      612      615 1
     638      613      617 1
     639      614      621 1
     640      614      616 1
     641      615      618 1
     642      616      619 1
     643      616      622 1
     644      618      621 1
     645      618      623 1
     646      621      625 1
     647      623      624 1
     648      623      628 1
     649      629      630 1
     650      629      654 1
     651      630      631 1
     652      630      632 1
     653      630      633 1
     654      631      634 1
     655      631      635 1
     656      631      636 1
     657      634      637 1
     658      634      638 1
     659      637      639 1
     660      637      640 1
     661      637      641 1
     662      639      642 1
     663      639      643 1
     664      639      644 1
     665      642      645 1
     666      642      646 1
     667      645      647 1
     668      645      648 1
     669      645      649 1
     670      647      650 1
     671      647      651 1
     672      647      652 1
     673      650      653 1
     674      655      656 1
     675      655      680 1
     676      656      657 1
     677      656      658 1
     678      656      659 1
     679      657      660 1
     680      657      661 1
     681      657      662 1
     682      660      663 1
     683      660      664 1
     684      663      665 1
     685      663      666 1
     686      663      667 1
     687      665      668 1
     688      665      669 1
     689      665      670 1
     690      668      671 1
     691      668      672 1
     692      671      673 1
     693      671      674 1
     694      671      675 1
     695      673      676 1
     696      673      677 1
     697      673      678 1
     698      676      679 1
     699      681      682 1
     700      681      706 1
     701      682      683 1
     702      682      684 1
     703      682      685 1
     704      683      686 1
     705      683      687 1
     706      683      688 1
     707      686      689 1
     708      686      690 1
     709      689      691 1
     710      689      692 1
     711      689      693 1
     712      691      694 1
     713      691      695 1
     714      691      696 1
     715      694      697 1
     716      694      698 1
     717      697      699 1
     718      697      700 1
     719      697      701 1
     720      699      702 1
     721      699      703 1
     722      699      704 1
     723      702      705 1
     724      707      708 1
     725      707      732 1
     726      708      709 1
     727      708      710 1
     728      708      711 1
     729      709      712 1
     730      709      713 1
     731      709      714 1
     732      712      715 1
     733      712      716 1
     734      715      717 1
     735      715      718 1
     736      715      719 1
     737      717      720 1
     738      717      721 1
     739      717      722 1
     740      720      723 1
     741      720      724 1
     742      723      725 1
     743      723      726 1
     744      723      727 1
     745      725      728 1
     746      725      729 1
     747      725      730 1
     748      728      731 1
@<TRIPOS>SUBSTRUCTURE
       1 RES             1 RESIDUE    0 **** ROOT      0
