@<TRIPOS>MOLECULE
RES
900 920 1 0 1
SMALL
NO_CHARGES
@<TRIPOS>CRYSIN
   78.3572    73.3257   124.7495    90.0000    90.0000    90.0000 1 1
@<TRIPOS>ATOM
       1 N           27.0540   106.8995    19.0792 N             1 RES     
       2 C           28.8676   106.3993    19.0793 C             1 RES     
       3 C           30.5560   107.1705    19.0793 C             1 RES     
       4 H           28.9167   105.7835    19.9529 H             1 RES     
       5 H           28.8786   106.2616    18.0182 H             1 RES     
       6 N           32.2236   106.1908    19.0793 N             1 RES     
       7 H           30.5877   107.7874    18.2056 H             1 RES     
       8 H           30.5774   107.5874    20.0645 H             1 RES     
       9 C           34.0163   107.4415    19.0793 C             1 RES     
      10 H           32.2468   105.5966    19.9203 H             1 RES     
      11 C           35.5171   106.0449    19.0793 C             1 RES     
      12 H           34.0596   108.0577    18.2057 H             1 RES     
      13 H           34.0642   108.1240    19.9019 H             1 RES     
      14 N           37.3723   107.5665    19.0794 N             1 RES     
      15 H           35.4978   105.4274    19.9530 H             1 RES     
      16 H           35.4947   105.3274    18.2858 H             1 RES     
      17 C           38.9773   106.0449    19.0794 C             1 RES     
      18 H           37.3937   108.1608    18.2384 H             1 RES     
      19 C           40.3739   107.5248    19.0795 C             1 RES     
      20 H           38.9945   105.4273    19.9531 H             1 RES     
      21 H           38.9987   105.2786    18.3330 H             1 RES     
      22 N           41.9998   106.0032    19.0795 N             1 RES     
      23 H           40.3548   108.1423    18.2058 H             1 RES     
      24 H           40.3502   108.2890    19.8280 H             1 RES     
      25 H           41.8614   105.3529    18.2929 H             1 RES     
      26 C           46.2497   102.9227    19.0359 C             1 RES     
      27 C           46.2949   104.8803    18.9654 C             1 RES     
      28 H           47.9072   106.8479    18.8387 H             1 RES     
      29 O           45.0738   107.0563    18.9327 O             1 RES     
      30 C           47.7152   101.4077    19.0368 C             1 RES     
      31 C           47.9200   105.7786    18.8758 C             1 RES     
      32 C           47.6992    99.8035    19.0938 C             1 RES     
      33 C           45.0068   105.9535    18.9738 C             1 RES     
      34 C           49.5878   104.9047    18.8471 C             1 RES     
      35 H           45.2540   102.5341    19.0851 H             1 RES     
      36 C           49.6203   102.6950    18.9236 C             1 RES     
      37 O           47.6307    98.6383    19.1372 O             1 RES     
      38 C           50.8367   105.7495    18.7728 C             1 RES     
      39 O           50.5696   106.8186    18.7447 O             1 RES     
      40 H           50.5685   102.1996    18.9071 H             1 RES     
      41 H           25.9609   106.9301    19.0455 H             1 RES     
      42 N           52.9588   105.6980    18.6988 N             1 RES     
      43 C           53.5317   103.9402    18.3507 C             1 RES     
      44 C           53.0366   102.4533    17.3560 C             1 RES     
      45 H           54.5274   104.1087    17.9973 H             1 RES     
      46 H           53.0648   103.5622    19.2362 H             1 RES     
      47 N           53.9955   100.7741    17.3179 N             1 RES     
      48 H           52.0469   102.2092    17.6813 H             1 RES     
      49 H           53.2326   102.8096    16.3663 H             1 RES     
      50 C           53.1108    99.2476    16.0275 C             1 RES     
      51 H           54.9531   100.9587    16.9866 H             1 RES     
      52 C           54.4019    97.6740    16.2724 C             1 RES     
      53 H           52.1227    98.9926    16.3492 H             1 RES     
      54 H           52.9990    99.5574    15.0095 H             1 RES     
      55 N           53.2974    96.1218    14.8137 N             1 RES     
      56 H           55.3931    97.9064    15.9432 H             1 RES     
      57 H           54.5610    97.3457    17.2783 H             1 RES     
      58 C           54.7014    94.4356    15.0908 C             1 RES     
      59 H           52.3435    95.8954    15.1297 H             1 RES     
      60 C           53.5919    93.3076    13.8113 C             1 RES     
      61 H           55.6959    94.6339    14.7492 H             1 RES     
      62 H           54.9307    94.0760    16.0721 H             1 RES     
      63 N           54.9977    91.6018    14.0813 N             1 RES     
      64 H           52.5973    93.1111    14.1537 H             1 RES     
      65 H           53.3653    93.6698    12.8304 H             1 RES     
      66 H           55.0947    91.3925    15.0851 H             1 RES     
      67 C           57.9028    87.2372    14.3342 C             1 RES     
      68 C           56.2405    87.4085    13.3112 C             1 RES     
      69 H           54.6746    86.0956    11.7910 H             1 RES     
      70 O           54.3076    88.8036    12.5733 O             1 RES     
      71 C           59.2898    85.6827    14.6547 C             1 RES     
      72 C           55.5851    85.9665    12.3380 C             1 RES     
      73 C           60.6535    85.5225    15.4863 C             1 RES     
      74 C           55.2413    88.7466    13.1626 C             1 RES     
      75 C           56.4403    84.2904    12.2645 C             1 RES     
      76 H           58.1668    88.1384    14.8472 H             1 RES     
      77 C           58.3222    84.0180    13.3930 C             1 RES     
      78 O           61.6402    85.4601    16.1083 O             1 RES     
      79 C           55.8052    83.1992    11.4369 C             1 RES     
      80 O           54.8778    83.5692    10.9699 O             1 RES     
      81 H           58.8072    83.0652    13.3505 H             1 RES     
      82 H           52.8203   106.7136    19.0813 H             1 RES     
      83 N           55.9911    81.1824    10.7971 N             1 RES     
      84 C           57.3111    80.3184    11.8219 C             1 RES     
      85 C           57.9586    80.2728    13.5610 C             1 RES     
      86 H           57.0631    79.2900    11.6619 H             1 RES     
      87 H           58.0710    81.0027    11.5066 H             1 RES     
      88 N           59.4168    79.1597    14.1734 N             1 RES     
      89 H           58.2544    81.2772    13.7815 H             1 RES     
      90 H           57.1360    79.8051    14.0606 H             1 RES     
      91 C           59.9012    79.3761    16.2940 C             1 RES     
      92 H           59.1643    78.1761    14.0007 H             1 RES     
      93 C           61.4556    78.0585    16.5184 C             1 RES     
      94 H           60.2042    80.3764    16.5227 H             1 RES     
      95 H           59.0751    79.1815    16.9455 H             1 RES     
      96 N           61.8500    78.4218    18.8571 N             1 RES     
      97 H           61.1675    77.0499    16.3067 H             1 RES     
      98 H           62.2945    78.2026    15.8700 H             1 RES     
      99 C           63.5255    76.9955    19.0794 C             1 RES     
     100 H           62.1291    79.3917    19.0630 H             1 RES     
     101 C           63.6651    77.4741    21.0522 C             1 RES     
     102 H           63.2593    75.9757    18.8946 H             1 RES     
     103 H           64.3830    77.0620    18.4429 H             1 RES     
     104 N           65.3532    76.0414    21.2900 N             1 RES     
     105 H           63.9303    78.4945    21.2356 H             1 RES     
     106 H           62.8059    77.4055    21.6862 H             1 RES     
     107 H           66.0866    76.2574    20.5998 H             1 RES     
     108 C           69.3723    72.8782    22.4708 C             1 RES     
     109 C           68.5246    74.1163    23.7309 C             1 RES     
     110 H           68.6462    74.9200    26.1446 H             1 RES     
     111 O           66.7923    75.8499    24.2007 O             1 RES     
     112 C           70.9607    71.4981    22.5942 C             1 RES     
     113 C           69.1325    74.2332    25.4838 C             1 RES     
     114 C           71.6683    70.4776    21.5770 C             1 RES     
     115 C           67.2439    75.1641    23.4604 C             1 RES     
     116 C           70.5598    73.2058    26.1571 C             1 RES     
     117 CL          72.4278    70.1122    22.4147 CL            1 RES     
     118 H           68.9274    72.9099    21.4982 H             1 RES     
     119 C           71.5685    71.7848    24.7960 C             1 RES     
     120 O           72.1471    69.7523    20.7965 O             1 RES     
     121 C           70.9579    73.3944    27.6010 C             1 RES     
     122 O           70.3136    74.1526    28.0756 O             1 RES     
     123 H           72.3794    71.2017    25.1797 H             1 RES     
     124 H           55.3446    81.5614    10.0000 H             1 RES     
     125 N           72.2996    72.7648    29.1225 N             1 RES     
     126 C           73.6947    71.7639    28.3535 C             1 RES     
     127 C           74.7431    71.7278    26.8222 C             1 RES     
     128 H           74.4405    71.8186    29.1188 H             1 RES     
     129 H           73.0185    71.0312    27.9651 H             1 RES     
     130 N           76.1310    70.4310    26.4578 N             1 RES     
     131 H           74.0547    71.6453    26.0072 H             1 RES     
     132 H           75.3350    72.6062    26.9732 H             1 RES     
     133 C           77.1568    70.7053    24.5472 C             1 RES     
     134 H           76.8320    70.4911    27.2100 H             1 RES     
     135 C           78.5101    69.1654    24.5586 C             1 RES     
     136 H           76.4769    70.6184    23.7256 H             1 RES     
     137 H           77.6048    71.6704    24.4345 H             1 RES     
     138 N           79.5257    69.6140    22.4316 N             1 RES     
     139 H           79.2074    69.2430    25.3665 H             1 RES     
     140 H           78.1069    68.1832    24.6918 H             1 RES     
     141 C           80.9786    67.9468    22.4623 C             1 RES     
     142 H           78.8565    69.5382    21.6523 H             1 RES     
     143 C           81.6755    68.5267    20.6406 C             1 RES     
     144 H           81.7020    68.0115    23.2481 H             1 RES     
     145 H           80.6481    66.9418    22.6221 H             1 RES     
     146 N           83.1433    66.8522    20.6587 N             1 RES     
     147 H           80.9507    68.4626    19.8560 H             1 RES     
     148 H           82.0061    69.5323    20.4845 H             1 RES     
     149 H           82.6484    65.9636    20.8209 H             1 RES     
     150 C           86.7692    63.0987    20.0953 C             1 RES     
     151 C           86.3581    64.4588    18.7460 C             1 RES     
     152 H           87.0251    65.2407    16.4157 H             1 RES     
     153 O           85.0247    66.4452    18.0366 O             1 RES     
     154 C           88.1219    61.4860    20.2066 C             1 RES     
     155 C           87.2755    64.4838    17.1293 C             1 RES     
     156 C           88.4734    60.3638    21.2993 C             1 RES     
     157 C           85.2276    65.6946    18.8226 C             1 RES     
     158 C           88.6229    63.2465    16.6822 C             1 RES     
     159 CL          89.3026    59.8859    20.5950 CL            1 RES     
     160 H           86.1706    63.1972    20.9766 H             1 RES     
     161 C           89.1445    61.6802    18.1533 C             1 RES     
     162 O           88.6894    59.5698    22.1283 O             1 RES     
     163 C           89.2930    63.3745    15.3356 C             1 RES     
     164 O           88.8673    64.2261    14.7801 O             1 RES     
     165 H           89.9102    60.9778    17.8982 H             1 RES     
     166 H           71.4911    73.1519    29.7496 H             1 RES     
     167 N           90.7677    62.5459    14.0509 N             1 RES     
     168 C           91.2985    60.8648    14.7076 C             1 RES     
     169 C           90.5788    59.3726    15.5448 C             1 RES     
     170 H           91.7376    60.4266    13.8359 H             1 RES     
     171 H           91.6360    61.2805    15.6341 H             1 RES     
     172 N           91.5771    57.7962    16.0539 N             1 RES     
     173 H           90.1405    59.7373    16.4502 H             1 RES     
     174 H           89.9825    58.9748    14.7504 H             1 RES     
     175 C           90.3891    56.2373    17.0216 C             1 RES     
     176 H           92.0006    57.3962    15.2045 H             1 RES     
     177 C           91.7929    54.7882    17.3858 C             1 RES     
     178 H           89.9517    56.5913    17.9316 H             1 RES     
     179 H           89.5637    55.8975    16.4317 H             1 RES     
     180 N           90.3404    53.1883    18.4286 N             1 RES     
     181 H           92.2321    54.4122    16.4854 H             1 RES     
     182 H           92.6477    55.0908    17.9539 H             1 RES     
     183 C           91.8692    51.6370    18.8131 C             1 RES     
     184 H           89.9178    53.5476    19.2965 H             1 RES     
     185 C           90.4475    50.4522    19.6591 C             1 RES     
     186 H           92.3093    51.2278    17.9277 H             1 RES     
     187 H           92.7639    51.8776    19.3482 H             1 RES     
     188 N           91.9767    48.8819    20.0521 N             1 RES     
     189 H           90.0074    50.8632    20.5436 H             1 RES     
     190 H           89.5544    50.2128    19.1207 H             1 RES     
     191 H           92.7617    49.2913    20.5784 H             1 RES     
     192 C           95.1020    44.8480    21.2820 C             1 RES     
     193 C           93.1951    44.9509    21.7207 C             1 RES     
     194 H           91.3238    43.6503    22.8578 H             1 RES     
     195 O           91.0388    46.2045    21.6433 O             1 RES     
     196 C           96.6211    43.4237    21.6093 C             1 RES     
     197 C           92.3664    43.5604    22.6349 C             1 RES     
     198 C           98.1843    43.3206    21.2591 C             1 RES     
     199 C           92.1118    46.1838    21.3777 C             1 RES     
     200 C           93.2664    42.0019    23.1891 C             1 RES     
     201 CL          98.2668    42.2537    21.7757 CL            1 RES     
     202 H           95.4521    45.7117    20.7565 H             1 RES     
     203 C           95.4211    41.8109    22.7310 C             1 RES     
     204 O           99.3181    43.2966    20.9795 O             1 RES     
     205 C           92.4789    40.9447    23.9247 C             1 RES     
     206 O           91.4290    41.2623    24.0346 O             1 RES     
     207 H           95.9314    40.9249    23.0464 H             1 RES     
     208 H           90.7199    63.5569    13.6357 H             1 RES     
     209 H           26.9216   107.7908    18.4588 H             1 RES     
     210 H           92.5362    39.9633    24.4047 H             1 RES     
     211 N           27.0540   106.8995    69.0792 N             1 RES     
     212 C           28.8676   106.3993    69.0793 C             1 RES     
     213 C           30.5560   107.1705    69.0793 C             1 RES     
     214 H           28.9167   105.7835    69.9529 H             1 RES     
     215 H           28.8786   106.2616    68.0182 H             1 RES     
     216 N           32.2236   106.1908    69.0793 N             1 RES     
     217 H           30.5877   107.7874    68.2056 H             1 RES     
     218 H           30.5774   107.5874    70.0645 H             1 RES     
     219 C           34.0163   107.4415    69.0793 C             1 RES     
     220 H           32.2468   105.5966    69.9203 H             1 RES     
     221 C           35.5171   106.0449    69.0793 C             1 RES     
     222 H           34.0596   108.0577    68.2057 H             1 RES     
     223 H           34.0642   108.1240    69.9019 H             1 RES     
     224 N           37.3723   107.5665    69.0794 N             1 RES     
     225 H           35.4978   105.4274    69.9530 H             1 RES     
     226 H           35.4947   105.3274    68.2858 H             1 RES     
     227 C           38.9773   106.0449    69.0794 C             1 RES     
     228 H           37.3937   108.1608    68.2384 H             1 RES     
     229 C           40.3739   107.5248    69.0795 C             1 RES     
     230 H           38.9945   105.4273    69.9531 H             1 RES     
     231 H           38.9987   105.2786    68.3330 H             1 RES     
     232 N           41.9998   106.0032    69.0795 N             1 RES     
     233 H           40.3548   108.1423    68.2058 H             1 RES     
     234 H           40.3502   108.2890    69.8280 H             1 RES     
     235 H           41.8614   105.3529    68.2929 H             1 RES     
     236 C           46.2497   102.9227    69.0359 C             1 RES     
     237 C           46.2949   104.8803    68.9654 C             1 RES     
     238 H           47.9072   106.8479    68.8387 H             1 RES     
     239 O           45.0738   107.0563    68.9327 O             1 RES     
     240 C           47.7152   101.4077    69.0368 C             1 RES     
     241 C           47.9200   105.7786    68.8758 C             1 RES     
     242 C           47.6992    99.8035    69.0938 C             1 RES     
     243 C           45.0068   105.9535    68.9738 C             1 RES     
     244 C           49.5878   104.9047    68.8471 C             1 RES     
     245 H           45.2540   102.5341    69.0851 H             1 RES     
     246 C           49.6203   102.6950    68.9236 C             1 RES     
     247 O           47.6307    98.6383    69.1372 O             1 RES     
     248 C           50.8367   105.7495    68.7728 C             1 RES     
     249 O           50.5696   106.8186    68.7447 O             1 RES     
     250 H           50.5685   102.1996    68.9071 H             1 RES     
     251 H           25.9609   106.9301    69.0455 H             1 RES     
     252 N           52.9588   105.6980    68.6988 N             1 RES     
     253 C           53.5317   103.9402    68.3507 C             1 RES     
     254 C           53.0366   102.4533    67.3560 C             1 RES     
     255 H           54.5274   104.1087    67.9973 H             1 RES     
     256 H           53.0648   103.5622    69.2362 H             1 RES     
     257 N           53.9955   100.7741    67.3179 N             1 RES     
     258 H           52.0469   102.2092    67.6813 H             1 RES     
     259 H           53.2326   102.8096    66.3663 H             1 RES     
     260 C           53.1108    99.2476    66.0275 C             1 RES     
     261 H           54.9531   100.9587    66.9866 H             1 RES     
     262 C           54.4019    97.6740    66.2724 C             1 RES     
     263 H           52.1227    98.9926    66.3492 H             1 RES     
     264 H           52.9990    99.5574    65.0095 H             1 RES     
     265 N           53.2974    96.1218    64.8137 N             1 RES     
     266 H           55.3931    97.9064    65.9432 H             1 RES     
     267 H           54.5610    97.3457    67.2783 H             1 RES     
     268 C           54.7014    94.4356    65.0908 C             1 RES     
     269 H           52.3435    95.8954    65.1297 H             1 RES     
     270 C           53.5919    93.3076    63.8113 C             1 RES     
     271 H           55.6959    94.6339    64.7492 H             1 RES     
     272 H           54.9307    94.0760    66.0721 H             1 RES     
     273 N           54.9977    91.6018    64.0813 N             1 RES     
     274 H           52.5973    93.1111    64.1537 H             1 RES     
     275 H           53.3653    93.6698    62.8304 H             1 RES     
     276 H           55.0947    91.3925    65.0851 H             1 RES     
     277 C           57.9028    87.2372    64.3342 C             1 RES     
     278 C           56.2405    87.4085    63.3112 C             1 RES     
     279 H           54.6746    86.0956    61.7910 H             1 RES     
     280 O           54.3076    88.8036    62.5733 O             1 RES     
     281 C           59.2898    85.6827    64.6547 C             1 RES     
     282 C           55.5851    85.9665    62.3380 C             1 RES     
     283 C           60.6535    85.5225    65.4863 C             1 RES     
     284 C           55.2413    88.7466    63.1626 C             1 RES     
     285 C           56.4403    84.2904    62.2645 C             1 RES     
     286 H           58.1668    88.1384    64.8472 H             1 RES     
     287 C           58.3222    84.0180    63.3930 C             1 RES     
     288 O           61.6402    85.4601    66.1083 O             1 RES     
     289 C           55.8052    83.1992    61.4369 C             1 RES     
     290 O           54.8778    83.5692    60.9699 O             1 RES     
     291 H           58.8072    83.0652    63.3505 H             1 RES     
     292 H           52.8203   106.7136    69.0813 H             1 RES     
     293 N           55.9911    81.1824    60.7971 N             1 RES     
     294 C           57.3111    80.3184    61.8219 C             1 RES     
     295 C           57.9586    80.2728    63.5610 C             1 RES     
     296 H           57.0631    79.2900    61.6619 H             1 RES     
     297 H           58.0710    81.0027    61.5066 H             1 RES     
     298 N           59.4168    79.1597    64.1734 N             1 RES     
     299 H           58.2544    81.2772    63.7815 H             1 RES     
     300 H           57.1360    79.8051    64.0606 H             1 RES     
     301 C           59.9012    79.3761    66.2940 C             1 RES     
     302 H           59.1643    78.1761    64.0007 H             1 RES     
     303 C           61.4556    78.0585    66.5184 C             1 RES     
     304 H           60.2042    80.3764    66.5227 H             1 RES     
     305 H           59.0751    79.1815    66.9455 H             1 RES     
     306 N           61.8500    78.4218    68.8571 N             1 RES     
     307 H           61.1675    77.0499    66.3067 H             1 RES     
     308 H           62.2945    78.2026    65.8700 H             1 RES     
     309 C           63.5255    76.9955    69.0794 C             1 RES     
     310 H           62.1291    79.3917    69.0630 H             1 RES     
     311 C           63.6651    77.4741    71.0522 C             1 RES     
     312 H           63.2593    75.9757    68.8946 H             1 RES     
     313 H           64.3830    77.0620    68.4429 H             1 RES     
     314 N           65.3532    76.0414    71.2900 N             1 RES     
     315 H           63.9303    78.4945    71.2356 H             1 RES     
     316 H           62.8059    77.4055    71.6862 H             1 RES     
     317 H           66.0866    76.2574    70.5998 H             1 RES     
     318 C           69.3723    72.8782    72.4708 C             1 RES     
     319 C           68.5246    74.1163    73.7309 C             1 RES     
     320 H           68.6462    74.9200    76.1446 H             1 RES     
     321 O           66.7923    75.8499    74.2007 O             1 RES     
     322 C           70.9607    71.4981    72.5942 C             1 RES     
     323 C           69.1325    74.2332    75.4838 C             1 RES     
     324 C           71.6683    70.4776    71.5770 C             1 RES     
     325 C           67.2439    75.1641    73.4604 C             1 RES     
     326 C           70.5598    73.2058    76.1571 C             1 RES     
     327 H           68.9274    72.9099    71.4982 H             1 RES     
     328 C           71.5685    71.7848    74.7960 C             1 RES     
     329 O           72.1471    69.7523    70.7965 O             1 RES     
     330 C           70.9579    73.3944    77.6010 C             1 RES     
     331 O           70.3136    74.1526    78.0756 O             1 RES     
     332 H           72.3794    71.2017    75.1797 H             1 RES     
     333 H           55.3446    81.5614    60.0000 H             1 RES     
     334 N           72.2996    72.7648    79.1225 N             1 RES     
     335 C           73.6947    71.7639    78.3535 C             1 RES     
     336 C           74.7431    71.7278    76.8222 C             1 RES     
     337 H           74.4405    71.8186    79.1188 H             1 RES     
     338 H           73.0185    71.0312    77.9651 H             1 RES     
     339 N           76.1310    70.4310    76.4578 N             1 RES     
     340 H           74.0547    71.6453    76.0072 H             1 RES     
     341 H           75.3350    72.6062    76.9732 H             1 RES     
     342 C           77.1568    70.7053    74.5472 C             1 RES     
     343 H           76.8320    70.4911    77.2100 H             1 RES     
     344 C           78.5101    69.1654    74.5586 C             1 RES     
     345 H           76.4769    70.6184    73.7256 H             1 RES     
     346 H           77.6048    71.6704    74.4345 H             1 RES     
     347 N           79.5257    69.6140    72.4316 N             1 RES     
     348 H           79.2074    69.2430    75.3665 H             1 RES     
     349 H           78.1069    68.1832    74.6918 H             1 RES     
     350 C           80.9786    67.9468    72.4623 C             1 RES     
     351 H           78.8565    69.5382    71.6523 H             1 RES     
     352 C           81.6755    68.5267    70.6406 C             1 RES     
     353 H           81.7020    68.0115    73.2481 H             1 RES     
     354 H           80.6481    66.9418    72.6221 H             1 RES     
     355 N           83.1433    66.8522    70.6587 N             1 RES     
     356 H           80.9507    68.4626    69.8560 H             1 RES     
     357 H           82.0061    69.5323    70.4845 H             1 RES     
     358 H           82.6484    65.9636    70.8209 H             1 RES     
     359 C           86.7692    63.0987    70.0953 C             1 RES     
     360 C           86.3581    64.4588    68.7460 C             1 RES     
     361 H           87.0251    65.2407    66.4157 H             1 RES     
     362 O           85.0247    66.4452    68.0366 O             1 RES     
     363 C           88.1219    61.4860    70.2066 C             1 RES     
     364 C           87.2755    64.4838    67.1293 C             1 RES     
     365 C           88.4734    60.3638    71.2993 C             1 RES     
     366 C           85.2276    65.6946    68.8226 C             1 RES     
     367 C           88.6229    63.2465    66.6822 C             1 RES     
     368 H           86.1706    63.1972    70.9766 H             1 RES     
     369 C           89.1445    61.6802    68.1533 C             1 RES     
     370 O           88.6894    59.5698    72.1283 O             1 RES     
     371 C           89.2930    63.3745    65.3356 C             1 RES     
     372 O           88.8673    64.2261    64.7801 O             1 RES     
     373 H           89.9102    60.9778    67.8982 H             1 RES     
     374 H           71.4911    73.1519    79.7496 H             1 RES     
     375 N           90.7677    62.5459    64.0509 N             1 RES     
     376 C           91.2985    60.8648    64.7076 C             1 RES     
     377 C           90.5788    59.3726    65.5448 C             1 RES     
     378 H           91.7376    60.4266    63.8359 H             1 RES     
     379 H           91.6360    61.2805    65.6341 H             1 RES     
     380 N           91.5771    57.7962    66.0539 N             1 RES     
     381 H           90.1405    59.7373    66.4502 H             1 RES     
     382 H           89.9825    58.9748    64.7504 H             1 RES     
     383 C           90.3891    56.2373    67.0216 C             1 RES     
     384 H           92.0006    57.3962    65.2045 H             1 RES     
     385 C           91.7929    54.7882    67.3858 C             1 RES     
     386 H           89.9517    56.5913    67.9316 H             1 RES     
     387 H           89.5637    55.8975    66.4317 H             1 RES     
     388 N           90.3404    53.1883    68.4286 N             1 RES     
     389 H           92.2321    54.4122    66.4854 H             1 RES     
     390 H           92.6477    55.0908    67.9539 H             1 RES     
     391 C           91.8692    51.6370    68.8131 C             1 RES     
     392 H           89.9178    53.5476    69.2965 H             1 RES     
     393 C           90.4475    50.4522    69.6591 C             1 RES     
     394 H           92.3093    51.2278    67.9277 H             1 RES     
     395 H           92.7639    51.8776    69.3482 H             1 RES     
     396 N           91.9767    48.8819    70.0521 N             1 RES     
     397 H           90.0074    50.8632    70.5436 H             1 RES     
     398 H           89.5544    50.2128    69.1207 H             1 RES     
     399 H           92.7617    49.2913    70.5784 H             1 RES     
     400 C           95.1020    44.8480    71.2820 C             1 RES     
     401 C           93.1951    44.9509    71.7207 C             1 RES     
     402 H           91.3238    43.6503    72.8578 H             1 RES     
     403 O           91.0388    46.2045    71.6433 O             1 RES     
     404 C           96.6211    43.4237    71.6093 C             1 RES     
     405 C           92.3664    43.5604    72.6349 C             1 RES     
     406 C           98.1843    43.3206    71.2591 C             1 RES     
     407 C           92.1118    46.1838    71.3777 C             1 RES     
     408 C           93.2664    42.0019    73.1891 C             1 RES     
     409 CL          98.2668    42.2537    71.7757 CL            1 RES     
     410 H           95.4521    45.7117    70.7565 H             1 RES     
     411 C           95.4211    41.8109    72.7310 C             1 RES     
     412 O           99.3181    43.2966    70.9795 O             1 RES     
     413 C           92.4789    40.9447    73.9247 C             1 RES     
     414 O           91.4290    41.2623    74.0346 O             1 RES     
     415 H           95.9314    40.9249    73.0464 H             1 RES     
     416 H           90.7199    63.5569    63.6357 H             1 RES     
     417 H           26.9216   107.7908    68.4588 H             1 RES     
     418 H           92.5362    39.9633    74.4047 H             1 RES     
     419 N           27.0540   106.8995   119.0792 N             1 RES     
     420 C           28.8676   106.3993   119.0793 C             1 RES     
     421 C           30.5560   107.1705   119.0793 C             1 RES     
     422 H           28.9167   105.7835   119.9529 H             1 RES     
     423 H           28.8786   106.2616   118.0182 H             1 RES     
     424 N           32.2236   106.1908   119.0793 N             1 RES     
     425 H           30.5877   107.7874   118.2056 H             1 RES     
     426 H           30.5774   107.5874   120.0645 H             1 RES     
     427 C           34.0163   107.4415   119.0793 C             1 RES     
     428 H           32.2468   105.5966   119.9203 H             1 RES     
     429 C           35.5171   106.0449   119.0793 C             1 RES     
     430 H           34.0596   108.0577   118.2057 H             1 RES     
     431 H           34.0642   108.1240   119.9019 H             1 RES     
     432 N           37.3723   107.5665   119.0794 N             1 RES     
     433 H           35.4978   105.4274   119.9530 H             1 RES     
     434 H           35.4947   105.3274   118.2858 H             1 RES     
     435 C           38.9773   106.0449   119.0794 C             1 RES     
     436 H           37.3937   108.1608   118.2384 H             1 RES     
     437 C           40.3739   107.5248   119.0795 C             1 RES     
     438 H           38.9945   105.4273   119.9531 H             1 RES     
     439 H           38.9987   105.2786   118.3330 H             1 RES     
     440 N           41.9998   106.0032   119.0795 N             1 RES     
     441 H           40.3548   108.1423   118.2058 H             1 RES     
     442 H           40.3502   108.2890   119.8280 H             1 RES     
     443 H           41.8614   105.3529   118.2929 H             1 RES     
     444 C           46.2497   102.9227   119.0359 C             1 RES     
     445 C           46.2949   104.8803   118.9654 C             1 RES     
     446 H           47.9072   106.8479   118.8387 H             1 RES     
     447 O           45.0738   107.0563   118.9327 O             1 RES     
     448 C           47.7152   101.4077   119.0368 C             1 RES     
     449 C           47.9200   105.7786   118.8758 C             1 RES     
     450 C           47.6992    99.8035   119.0938 C             1 RES     
     451 C           45.0068   105.9535   118.9738 C             1 RES     
     452 C           49.5878   104.9047   118.8471 C             1 RES     
     453 CL          48.8858    99.7539   119.0532 CL            1 RES     
     454 H           45.2540   102.5341   119.0851 H             1 RES     
     455 C           49.6203   102.6950   118.9236 C             1 RES     
     456 O           47.6307    98.6383   119.1372 O             1 RES     
     457 C           50.8367   105.7495   118.7728 C             1 RES     
     458 O           50.5696   106.8186   118.7447 O             1 RES     
     459 H           50.5685   102.1996   118.9071 H             1 RES     
     460 H           25.9609   106.9301   119.0455 H             1 RES     
     461 N           52.9588   105.6980   118.6988 N             1 RES     
     462 C           53.5317   103.9402   118.3507 C             1 RES     
     463 C           53.0366   102.4533   117.3560 C             1 RES     
     464 H           54.5274   104.1087   117.9973 H             1 RES     
     465 H           53.0648   103.5622   119.2362 H             1 RES     
     466 N           53.9955   100.7741   117.3179 N             1 RES     
     467 H           52.0469   102.2092   117.6813 H             1 RES     
     468 H           53.2326   102.8096   116.3663 H             1 RES     
     469 C           53.1108    99.2476   116.0275 C             1 RES     
     470 H           54.9531   100.9587   116.9866 H             1 RES     
     471 C           54.4019    97.6740   116.2724 C             1 RES     
     472 H           52.1227    98.9926   116.3492 H             1 RES     
     473 H           52.9990    99.5574   115.0095 H             1 RES     
     474 N           53.2974    96.1218   114.8137 N             1 RES     
     475 H           55.3931    97.9064   115.9432 H             1 RES     
     476 H           54.5610    97.3457   117.2783 H             1 RES     
     477 C           54.7014    94.4356   115.0908 C             1 RES     
     478 H           52.3435    95.8954   115.1297 H             1 RES     
     479 C           53.5919    93.3076   113.8113 C             1 RES     
     480 H           55.6959    94.6339   114.7492 H             1 RES     
     481 H           54.9307    94.0760   116.0721 H             1 RES     
     482 N           54.9977    91.6018   114.0813 N             1 RES     
     483 H           52.5973    93.1111   114.1537 H             1 RES     
     484 H           53.3653    93.6698   112.8304 H             1 RES     
     485 H           55.0947    91.3925   115.0851 H             1 RES     
     486 C           57.9028    87.2372   114.3342 C             1 RES     
     487 C           56.2405    87.4085   113.3112 C             1 RES     
     488 H           54.6746    86.0956   111.7910 H             1 RES     
     489 O           54.3076    88.8036   112.5733 O             1 RES     
     490 C           59.2898    85.6827   114.6547 C             1 RES     
     491 C           55.5851    85.9665   112.3380 C             1 RES     
     492 C           60.6535    85.5225   115.4863 C             1 RES     
     493 C           55.2413    88.7466   113.1626 C             1 RES     
     494 C           56.4403    84.2904   112.2645 C             1 RES     
     495 CL          60.7751    84.3926   115.1393 CL            1 RES     
     496 H           58.1668    88.1384   114.8472 H             1 RES     
     497 C           58.3222    84.0180   113.3930 C             1 RES     
     498 O           61.6402    85.4601   116.1083 O             1 RES     
     499 C           55.8052    83.1992   111.4369 C             1 RES     
     500 O           54.8778    83.5692   110.9699 O             1 RES     
     501 H           58.8072    83.0652   113.3505 H             1 RES     
     502 H           52.8203   106.7136   119.0813 H             1 RES     
     503 N           55.9911    81.1824   110.7971 N             1 RES     
     504 C           57.3111    80.3184   111.8219 C             1 RES     
     505 C           57.9586    80.2728   113.5610 C             1 RES     
     506 H           57.0631    79.2900   111.6619 H             1 RES     
     507 H           58.0710    81.0027   111.5066 H             1 RES     
     508 N           59.4168    79.1597   114.1734 N             1 RES     
     509 H           58.2544    81.2772   113.7815 H             1 RES     
     510 H           57.1360    79.8051   114.0606 H             1 RES     
     511 C           59.9012    79.3761   116.2940 C             1 RES     
     512 H           59.1643    78.1761   114.0007 H             1 RES     
     513 C           61.4556    78.0585   116.5184 C             1 RES     
     514 H           60.2042    80.3764   116.5227 H             1 RES     
     515 H           59.0751    79.1815   116.9455 H             1 RES     
     516 N           61.8500    78.4218   118.8571 N             1 RES     
     517 H           61.1675    77.0499   116.3067 H             1 RES     
     518 H           62.2945    78.2026   115.8700 H             1 RES     
     519 C           63.5255    76.9955   119.0794 C             1 RES     
     520 H           62.1291    79.3917   119.0630 H             1 RES     
     521 C           63.6651    77.4741   121.0522 C             1 RES     
     522 H           63.2593    75.9757   118.8946 H             1 RES     
     523 H           64.3830    77.0620   118.4429 H             1 RES     
     524 N           65.3532    76.0414   121.2900 N             1 RES     
     525 H           63.9303    78.4945   121.2356 H             1 RES     
     526 H           62.8059    77.4055   121.6862 H             1 RES     
     527 H           66.0866    76.2574   120.5998 H             1 RES     
     528 C           69.3723    72.8782   122.4708 C             1 RES     
     529 C           68.5246    74.1163   123.7309 C             1 RES     
     530 H           68.6462    74.9200   126.1446 H             1 RES     
     531 O           66.7923    75.8499   124.2007 O             1 RES     
     532 C           70.9607    71.4981   122.5942 C             1 RES     
     533 C           69.1325    74.2332   125.4838 C             1 RES     
     534 C           71.6683    70.4776   121.5770 C             1 RES     
     535 C           67.2439    75.1641   123.4604 C             1 RES     
     536 C           70.5598    73.2058   126.1571 C             1 RES     
     537 H           68.9274    72.9099   121.4982 H             1 RES     
     538 C           71.5685    71.7848   124.7960 C             1 RES     
     539 O           72.1471    69.7523   120.7965 O             1 RES     
     540 C           70.9579    73.3944   127.6010 C             1 RES     
     541 O           70.3136    74.1526   128.0756 O             1 RES     
     542 H           72.3794    71.2017   125.1797 H             1 RES     
     543 H           55.3446    81.5614   110.0000 H             1 RES     
     544 N           72.2996    72.7648   129.1225 N             1 RES     
     545 C           73.6947    71.7639   128.3535 C             1 RES     
     546 C           74.7431    71.7278   126.8222 C             1 RES     
     547 H           74.4405    71.8186   129.1188 H             1 RES     
     548 H           73.0185    71.0312   127.9651 H             1 RES     
     549 N           76.1310    70.4310   126.4578 N             1 RES     
     550 H           74.0547    71.6453   126.0072 H             1 RES     
     551 H           75.3350    72.6062   126.9732 H             1 RES     
     552 C           77.1568    70.7053   124.5472 C             1 RES     
     553 H           76.8320    70.4911   127.2100 H             1 RES     
     554 C           78.5101    69.1654   124.5586 C             1 RES     
     555 H           76.4769    70.6184   123.7256 H             1 RES     
     556 H           77.6048    71.6704   124.4345 H             1 RES     
     557 N           79.5257    69.6140   122.4316 N             1 RES     
     558 H           79.2074    69.2430   125.3665 H             1 RES     
     559 H           78.1069    68.1832   124.6918 H             1 RES     
     560 C           80.9786    67.9468   122.4623 C             1 RES     
     561 H           78.8565    69.5382   121.6523 H             1 RES     
     562 C           81.6755    68.5267   120.6406 C             1 RES     
     563 H           81.7020    68.0115   123.2481 H             1 RES     
     564 H           80.6481    66.9418   122.6221 H             1 RES     
     565 N           83.1433    66.8522   120.6587 N             1 RES     
     566 H           80.9507    68.4626   119.8560 H             1 RES     
     567 H           82.0061    69.5323   120.4845 H             1 RES     
     568 H           82.6484    65.9636   120.8209 H             1 RES     
     569 C           86.7692    63.0987   120.0953 C             1 RES     
     570 C           86.3581    64.4588   118.7460 C             1 RES     
     571 H           87.0251    65.2407   116.4157 H             1 RES     
     572 O           85.0247    66.4452   118.0366 O             1 RES     
     573 C           88.1219    61.4860   120.2066 C             1 RES     
     574 C           87.2755    64.4838   117.1293 C             1 RES     
     575 C           88.4734    60.3638   121.2993 C             1 RES     
     576 C           85.2276    65.6946   118.8226 C             1 RES     
     577 C           88.6229    63.2465   116.6822 C             1 RES     
     578 H           86.1706    63.1972   120.9766 H             1 RES     
     579 C           89.1445    61.6802   118.1533 C             1 RES     
     580 O           88.6894    59.5698   122.1283 O             1 RES     
     581 C           89.2930    63.3745   115.3356 C             1 RES     
     582 O           88.8673    64.2261   114.7801 O             1 RES     
     583 H           89.9102    60.9778   117.8982 H             1 RES     
     584 H           71.4911    73.1519   129.7496 H             1 RES     
     585 N           90.7677    62.5459   114.0509 N             1 RES     
     586 C           91.2985    60.8648   114.7076 C             1 RES     
     587 C           90.5788    59.3726   115.5448 C             1 RES     
     588 H           91.7376    60.4266   113.8359 H             1 RES     
     589 H           91.6360    61.2805   115.6341 H             1 RES     
     590 N           91.5771    57.7962   116.0539 N             1 RES     
     591 H           90.1405    59.7373   116.4502 H             1 RES     
     592 H           89.9825    58.9748   114.7504 H             1 RES     
     593 C           90.3891    56.2373   117.0216 C             1 RES     
     594 H           92.0006    57.3962   115.2045 H             1 RES     
     595 C           91.7929    54.7882   117.3858 C             1 RES     
     596 H           89.9517    56.5913   117.9316 H             1 RES     
     597 H           89.5637    55.8975   116.4317 H             1 RES     
     598 N           90.3404    53.1883   118.4286 N             1 RES     
     599 H           92.2321    54.4122   116.4854 H             1 RES     
     600 H           92.6477    55.0908   117.9539 H             1 RES     
     601 C           91.8692    51.6370   118.8131 C             1 RES     
     602 H           89.9178    53.5476   119.2965 H             1 RES     
     603 C           90.4475    50.4522   119.6591 C             1 RES     
     604 H           92.3093    51.2278   117.9277 H             1 RES     
     605 H           92.7639    51.8776   119.3482 H             1 RES     
     606 N           91.9767    48.8819   120.0521 N             1 RES     
     607 H           90.0074    50.8632   120.5436 H             1 RES     
     608 H           89.5544    50.2128   119.1207 H             1 RES     
     609 H           92.7617    49.2913   120.5784 H             1 RES     
     610 C           95.1020    44.8480   121.2820 C             1 RES     
     611 C           93.1951    44.9509   121.7207 C             1 RES     
     612 H           91.3238    43.6503   122.8578 H             1 RES     
     613 O           91.0388    46.2045   121.6433 O             1 RES     
     614 C           96.6211    43.4237   121.6093 C             1 RES     
     615 C           92.3664    43.5604   122.6349 C             1 RES     
     616 C           98.1843    43.3206   121.2591 C             1 RES     
     617 C           92.1118    46.1838   121.3777 C             1 RES     
     618 C           93.2664    42.0019   123.1891 C             1 RES     
     619 CL          98.2668    42.2537   121.7757 CL            1 RES     
     620 H           95.4521    45.7117   120.7565 H             1 RES     
     621 C           95.4211    41.8109   122.7310 C             1 RES     
     622 O           99.3181    43.2966   120.9795 O             1 RES     
     623 C           92.4789    40.9447   123.9247 C             1 RES     
     624 O           91.4290    41.2623   124.0346 O             1 RES     
     625 H           95.9314    40.9249   123.0464 H             1 RES     
     626 H           90.7199    63.5569   113.6357 H             1 RES     
     627 H           26.9216   107.7908   118.4588 H             1 RES     
     628 H           92.5362    39.9633   124.4047 H             1 RES     
     629 N           30.6115   103.9018    56.2812 N             1 RES     
     630 C           31.9032   103.4966    54.9748 C             1 RES     
     631 C           33.7114   103.7452    54.6369 C             1 RES     
     632 H           31.8231   102.4309    54.9222 H             1 RES     
     633 H           31.6267   104.3369    54.3728 H             1 RES     
     634 N           34.6446   103.1097    53.0666 N             1 RES     
     635 H           33.8605   104.8047    54.6479 H             1 RES     
     636 H           34.1365   103.1086    55.3845 H             1 RES     
     637 C           36.7759   103.5922    53.0144 C             1 RES     
     638 H           34.5464   102.0851    53.0276 H             1 RES     
     639 C           37.3637   102.7597    51.2356 C             1 RES     
     640 H           36.9345   104.6503    53.0189 H             1 RES     
     641 H           37.3200   103.2273    53.8604 H             1 RES     
     642 N           39.6806   103.3740    51.3431 N             1 RES     
     643 H           37.2248   101.6988    51.2176 H             1 RES     
     644 H           36.8301   103.0797    50.3651 H             1 RES     
     645 C           40.2955   102.4695    49.4208 C             1 RES     
     646 H           39.8166   104.3948    51.3588 H             1 RES     
     647 C           42.2034   103.1011    49.7392 C             1 RES     
     648 H           40.1875   101.4055    49.3836 H             1 RES     
     649 H           39.7847   102.7207    48.5148 H             1 RES     
     650 N           42.8360   102.1949    47.8059 N             1 RES     
     651 H           42.3097   104.1652    49.7773 H             1 RES     
     652 H           42.7116   102.8472    50.6459 H             1 RES     
     653 H           42.2384   102.5527    47.0472 H             1 RES     
     654 C           44.9195   100.3173    43.3690 C             1 RES     
     655 C           45.9018   101.3644    44.7023 C             1 RES     
     656 H           48.2052   102.3336    45.1943 H             1 RES     
     657 O           45.9259   102.5960    46.8725 O             1 RES     
     658 C           45.4196    99.4270    41.5249 C             1 RES     
     659 C           47.7002   101.7596    44.4457 C             1 RES     
     660 C           44.6323    98.5677    40.4210 C             1 RES     
     661 C           45.3376   102.0083    46.1439 C             1 RES     
     662 C           48.6794   101.2023    42.9368 C             1 RES     
     663 CL          45.6049    98.4780    39.7444 CL            1 RES     
     664 H           43.8957   100.1619    43.6384 H             1 RES     
     665 C           47.6408   100.0158    41.3867 C             1 RES     
     666 O           44.0126    97.9466    39.6499 O             1 RES     
     667 C           50.1359   101.5888    42.8469 C             1 RES     
     668 O           50.4273   102.1762    43.7330 O             1 RES     
     669 H           48.1981    99.6998    40.5299 H             1 RES     
     670 N           52.7329   101.3812    41.0969 N             1 RES     
     671 C           54.0073   101.0548    39.7520 C             1 RES     
     672 H           52.8517   102.3388    41.4574 H             1 RES     
     673 C           55.7749   101.4458    39.3420 C             1 RES     
     674 H           54.0157    99.9852    39.7242 H             1 RES     
     675 H           53.6396   101.8546    39.1435 H             1 RES     
     676 N           56.7024   100.8538    37.7515 N             1 RES     
     677 H           55.8342   102.5141    39.3257 H             1 RES     
     678 H           56.2783   100.8648    40.0862 H             1 RES     
     679 C           58.7822   101.5116    37.6102 C             1 RES     
     680 H           56.6898    99.8240    37.7371 H             1 RES     
     681 C           59.3749   100.6895    35.8282 C             1 RES     
     682 H           58.8508   102.5791    37.5871 H             1 RES     
     683 H           59.3847   101.2136    38.4427 H             1 RES     
     684 N           61.6340   101.4978    35.8369 N             1 RES     
     685 H           59.3256    99.6206    35.8372 H             1 RES     
     686 H           58.7858   100.9431    34.9718 H             1 RES     
     687 C           62.2548   100.6029    33.9120 C             1 RES     
     688 H           61.6838   102.5266    35.8266 H             1 RES     
     689 C           64.1126   101.3993    34.1462 C             1 RES     
     690 H           62.2358    99.5331    33.9007 H             1 RES     
     691 H           61.6930   100.7891    33.0207 H             1 RES     
     692 N           64.7508   100.5039    32.2098 N             1 RES     
     693 H           64.1300   102.4691    34.1585 H             1 RES     
     694 H           64.6722   101.2103    35.0384 H             1 RES     
     695 H           29.6934   104.0378    56.8604 H             1 RES     
     696 H           65.6408   100.4981    31.5737 H             1 RES     
     697 N           41.2718    88.3290    47.2813 N             1 RES     
     698 C           43.1112    88.1840    46.9139 C             1 RES     
     699 C           44.2697    87.2644    45.7924 C             1 RES     
     700 H           43.3625    89.1997    46.6903 H             1 RES     
     701 H           43.2655    87.4940    47.7171 H             1 RES     
     702 N           46.1938    87.4607    45.7822 N             1 RES     
     703 H           44.0898    86.2274    45.9850 H             1 RES     
     704 H           44.0252    87.7137    44.8526 H             1 RES     
     705 C           47.2304    86.2104    44.3192 C             1 RES     
     706 H           46.4149    88.4455    45.5768 H             1 RES     
     707 C           49.1926    86.7136    44.6346 C             1 RES     
     708 H           47.0612    85.1709    44.5078 H             1 RES     
     709 H           46.9032    86.3658    43.3125 H             1 RES     
     710 N           50.1636    85.2756    42.9773 N             1 RES     
     711 H           49.3838    87.7478    44.4377 H             1 RES     
     712 H           49.5559    86.5952    45.6340 H             1 RES     
     713 C           52.2746    85.8315    43.3322 C             1 RES     
     714 H           49.9822    84.2794    43.1658 H             1 RES     
     715 C           52.8558    84.5370    41.8738 C             1 RES     
     716 H           52.4984    86.8566    43.1216 H             1 RES     
     717 H           52.6951    85.7673    44.3139 H             1 RES     
     718 N           54.9855    85.0875    42.2208 N             1 RES     
     719 H           52.6305    83.5125    42.0851 H             1 RES     
     720 H           52.4341    84.6046    40.8928 H             1 RES     
     721 H           55.2148    84.9611    43.2169 H             1 RES     
     722 C           60.1539    85.9260    42.5923 C             1 RES     
     723 C           59.3229    84.6215    41.3893 C             1 RES     
     724 H           59.8877    82.8701    39.6286 H             1 RES     
     725 O           57.2634    83.5288    40.4998 O             1 RES     
     726 C           62.1376    86.5139    42.9949 C             1 RES     
     727 C           60.3751    83.5720    40.2724 C             1 RES     
     728 C           62.8373    87.5771    43.9732 C             1 RES     
     729 C           57.6943    84.2753    41.1921 C             1 RES     
     730 C           62.2543    83.6802    40.2150 C             1 RES     
     731 CL          63.9195    87.2764    43.5854 CL            1 RES     
     732 H           59.4372    86.4622    43.1785 H             1 RES     
     733 C           63.2668    85.1291    41.5434 C             1 RES     
     734 O           63.2947    88.3652    44.7038 O             1 RES     
     735 C           62.9940    82.7717    39.2629 C             1 RES     
     736 O           62.2795    82.1413    38.7087 O             1 RES     
     737 H           64.3345    85.1896    41.5099 H             1 RES     
     738 N           65.8296    81.9409    38.2050 N             1 RES     
     739 C           67.6731    81.7283    37.8961 C             1 RES     
     740 H           65.3707    81.0188    38.1918 H             1 RES     
     741 C           68.8364    80.6903    36.8888 C             1 RES     
     742 H           67.9509    82.7150    37.5892 H             1 RES     
     743 H           67.7949    81.1100    38.7609 H             1 RES     
     744 N           70.7640    80.8478    36.9073 N             1 RES     
     745 H           68.6303    79.6782    37.1683 H             1 RES     
     746 H           68.6224    81.0584    35.9072 H             1 RES     
     747 C           71.8060    79.4523    35.5864 C             1 RES     
     748 H           71.0105    81.8059    36.6207 H             1 RES     
     749 C           73.7710    79.9439    35.9028 C             1 RES     
     750 H           71.6106    78.4372    35.8625 H             1 RES     
     751 H           71.5046    79.5234    34.5623 H             1 RES     
     752 N           74.7477    78.3454    34.4035 N             1 RES     
     753 H           73.9884    80.9526    35.6195 H             1 RES     
     754 H           74.1094    79.9082    36.9172 H             1 RES     
     755 C           76.8617    78.8901    34.7581 C             1 RES     
     756 H           74.5410    77.3736    34.6753 H             1 RES     
     757 C           77.4474    77.4596    33.4348 C             1 RES     
     758 H           77.1117    79.8878    34.4628 H             1 RES     
     759 H           77.2588    78.9057    35.7515 H             1 RES     
     760 N           79.5800    77.9979    33.7825 N             1 RES     
     761 H           77.1957    76.4626    33.7308 H             1 RES     
     762 H           77.0490    77.4475    32.4418 H             1 RES     
     763 H           40.2872    88.5637    47.6963 H             1 RES     
     764 H           80.5664    77.6516    33.4599 H             1 RES     
     765 N           53.8308    83.1391   100.1933 N             1 RES     
     766 C           55.5681    82.5379    99.7937 C             1 RES     
     767 C           56.5147    80.9536    99.5950 C             1 RES     
     768 H           55.7418    83.0077    98.8482 H             1 RES     
     769 H           55.8946    82.6615   100.8052 H             1 RES     
     770 N           58.3940    80.8314    99.1549 N             1 RES     
     771 H           56.4057    80.4377   100.5261 H             1 RES     
     772 H           56.0803    80.5818    98.6906 H             1 RES     
     773 C           59.1649    78.7915    99.0044 C             1 RES     
     774 H           58.5425    81.2982    98.2488 H             1 RES     
     775 C           61.1355    79.1080    98.5362 C             1 RES     
     776 H           59.0657    78.2697    99.9332 H             1 RES     
     777 H           58.6451    78.1872    98.2907 H             1 RES     
     778 N           61.8099    76.8087    98.4123 N             1 RES     
     779 H           61.2548    79.6175    97.6028 H             1 RES     
     780 H           61.6882    79.7266    99.2121 H             1 RES     
     781 C           63.9326    77.1704    97.9075 C             1 RES     
     782 H           61.6974    76.3168    99.3102 H             1 RES     
     783 C           64.2589    75.1624    97.8611 C             1 RES     
     784 H           64.0814    77.6595    96.9675 H             1 RES     
     785 H           64.5363    77.8042    98.5228 H             1 RES     
     786 N           66.3984    75.5125    97.3526 N             1 RES     
     787 H           64.1085    74.6745    98.8015 H             1 RES     
     788 H           63.6539    74.5316    97.2439 H             1 RES     
     789 H           66.8193    76.1403    98.0522 H             1 RES     
     790 C           71.5146    75.6852    96.1915 C             1 RES     
     791 C           70.5055    74.0392    96.5261 C             1 RES     
     792 H           70.7707    71.5084    96.6322 H             1 RES     
     793 O           68.3458    72.9209    97.0846 O             1 RES     
     794 C           73.5208    76.1196    95.7121 C             1 RES     
     795 C           71.3525    72.3864    96.4439 C             1 RES     
     796 C           74.3648    77.4566    95.4347 C             1 RES     
     797 C           68.8803    73.8714    96.9022 C             1 RES     
     798 C           73.1813    72.1769    96.0465 C             1 RES     
     799 CL          75.3601    76.8338    95.2518 CL            1 RES     
     800 H           70.9092    76.5639    96.2700 H             1 RES     
     801 C           74.3885    73.9880    95.6566 C             1 RES     
     802 O           74.9314    78.4595    95.2417 O             1 RES     
     803 C           73.7496    70.7788    96.0104 C             1 RES     
     804 O           72.9603    70.0432    96.2360 O             1 RES     
     805 H           75.4274    73.8677    95.4310 H             1 RES     
     806 N           76.3506    69.0877    95.5365 N             1 RES     
     807 C           78.1053    68.4851    95.2246 C             1 RES     
     808 H           75.9249    68.5298    96.2905 H             1 RES     
     809 C           79.0821    66.9071    95.1877 C             1 RES     
     810 H           78.2897    68.8706    94.2437 H             1 RES     
     811 H           78.4097    68.7055    96.2265 H             1 RES     
     812 N           80.9716    66.7803    94.7946 N             1 RES     
     813 H           78.9635    66.4755    96.1596 H             1 RES     
     814 H           78.6720    66.4470    94.3131 H             1 RES     
     815 C           81.7793    64.7498    94.8438 C             1 RES     
     816 H           81.1300    67.1661    93.8528 H             1 RES     
     817 C           83.7532    65.0591    94.3845 C             1 RES     
     818 H           81.6706    64.3123    95.8142 H             1 RES     
     819 H           81.2840    64.0739    94.1786 H             1 RES     
     820 N           84.4684    62.7709    94.4820 N             1 RES     
     821 H           83.8823    65.4842    93.4111 H             1 RES     
     822 H           84.2820    65.7464    95.0114 H             1 RES     
     823 C           86.5943    63.1247    93.9850 C             1 RES     
     824 H           84.3465    62.3602    95.4187 H             1 RES     
     825 C           86.9551    61.1271    94.1269 C             1 RES     
     826 H           86.7534    63.5295    93.0074 H             1 RES     
     827 H           87.1751    63.8226    94.5511 H             1 RES     
     828 N           89.0980    61.4693    93.6275 N             1 RES     
     829 H           86.7944    60.7235    95.1048 H             1 RES     
     830 H           86.3730    60.4320    93.5586 H             1 RES     
     831 H           52.9383    83.7263   100.4289 H             1 RES     
     832 H           90.0133    60.8771    93.5350 H             1 RES     
     833 N           98.3094    68.3203   112.0803 N             1 RES     
     834 C           97.4628    67.1224   110.9024 C             1 RES     
     835 C           96.7723    67.0697   109.1802 C             1 RES     
     836 H           98.1716    66.3215   110.8703 H             1 RES     
     837 H           96.5005    67.3045   111.3335 H             1 RES     
     838 N           95.9527    65.5218   108.3600 N             1 RES     
     839 H           96.0276    67.8374   109.1480 H             1 RES     
     840 H           97.6746    67.1356   108.6088 H             1 RES     
     841 C           95.2537    65.8368   106.3130 C             1 RES     
     842 H           96.6456    64.7598   108.3488 H             1 RES     
     843 C           94.4754    64.0014   105.8352 C             1 RES     
     844 H           94.5039    66.5990   106.2719 H             1 RES     
     845 H           96.0201    66.1664   105.6431 H             1 RES     
     846 N           93.7700    64.5227   103.6019 N             1 RES     
     847 H           95.2145    63.2280   105.8580 H             1 RES     
     848 H           93.7208    63.6226   106.4926 H             1 RES     
     849 C           92.9354    62.5357   103.1051 C             1 RES     
     850 H           93.0573    65.2659   103.5778 H             1 RES     
     851 C           92.4309    63.2155   101.2547 C             1 RES     
     852 H           93.6583    61.7468   103.0991 H             1 RES     
     853 H           92.1996    62.0830   103.7362 H             1 RES     
     854 N           91.5870    61.2197   100.7415 N             1 RES     
     855 H           91.7089    64.0052   101.2623 H             1 RES     
     856 H           93.1695    63.6668   100.6258 H             1 RES     
     857 H           90.8956    60.9458   101.4540 H             1 RES     
     858 C           89.4131    56.7857    98.9615 C             1 RES     
     859 C           89.4850    58.4685    97.9604 C             1 RES     
     860 H           88.8099    59.5123    95.7374 H             1 RES     
     861 O           90.1712    60.8644    97.8347 O             1 RES     
     862 C           88.6420    54.8632    98.5712 C             1 RES     
     863 C           88.7527    58.5776    96.2551 C             1 RES     
     864 C           88.5732    53.4756    99.3753 C             1 RES     
     865 C           90.1506    59.9337    98.4310 C             1 RES     
     866 C           87.9157    57.1286    95.3913 C             1 RES     
     867 CL          88.0050    52.9421    98.4784 CL            1 RES     
     868 H           89.8695    56.8595    99.9265 H             1 RES     
     869 C           87.7949    55.1947    96.4565 C             1 RES     
     870 O           88.5503    52.4912   100.0035 O             1 RES     
     871 C           87.3604    57.3468    94.0046 C             1 RES     
     872 O           87.5388    58.3864    93.6844 O             1 RES     
     873 H           87.3190    54.3722    95.9647 H             1 RES     
     874 N           85.8614    55.9847    91.6072 N             1 RES     
     875 C           84.9359    54.8164    90.4592 C             1 RES     
     876 H           85.4392    56.9228    91.5555 H             1 RES     
     877 C           84.1026    54.8155    88.8006 C             1 RES     
     878 H           85.6512    54.0302    90.3366 H             1 RES     
     879 H           84.0110    54.9647    90.9766 H             1 RES     
     880 N           83.2396    53.2846    87.9930 N             1 RES     
     881 H           83.3464    55.5702    88.8610 H             1 RES     
     882 H           84.9520    54.9190    88.1582 H             1 RES     
     883 C           82.3647    53.6631    86.0259 C             1 RES     
     884 H           83.9403    52.5362    87.8940 H             1 RES     
     885 C           81.5762    51.8329    85.5447 C             1 RES     
     886 H           81.6028    54.4125    86.0777 H             1 RES     
     887 H           83.0665    54.0313    85.3070 H             1 RES     
     888 N           80.6762    52.4243    83.4005 N             1 RES     
     889 H           82.3261    51.0727    85.4751 H             1 RES     
     890 H           80.8859    51.4162    86.2481 H             1 RES     
     891 C           79.8323    50.4424    82.8992 C             1 RES     
     892 H           79.9529    53.1548    83.4654 H             1 RES     
     893 C           79.1624    51.1814    81.1256 C             1 RES     
     894 H           80.5638    49.6675    82.8018 H             1 RES     
     895 H           79.1595    49.9531    83.5720 H             1 RES     
     896 N           78.3080    49.1912    80.6084 N             1 RES     
     897 H           78.4319    51.9570    81.2245 H             1 RES     
     898 H           79.8382    51.6693    80.4547 H             1 RES     
     899 H           98.7683    68.8193   112.9390 H             1 RES     
     900 H           77.7234    48.7459    79.7979 H             1 RES     
@<TRIPOS>BOND
       1        1        2 1
       2        1       41 1
       3        1      209 1
       4        2        3 1
       5        2        4 1
       6        2        5 1
       7        3        6 1
       8        3        7 1
       9        3        8 1
      10        6        9 1
      11        6       10 1
      12        9       11 1
      13        9       12 1
      14        9       13 1
      15       11       14 1
      16       11       15 1
      17       11       16 1
      18       14       17 1
      19       14       18 1
      20       17       19 1
      21       17       20 1
      22       17       21 1
      23       19       22 1
      24       19       23 1
      25       19       24 1
      26       22       25 1
      27       22       33 1
      28       26       27 1
      29       26       30 1
      30       26       35 1
      31       27       31 1
      32       27       33 1
      33       28       31 1
      34       29       33 1
      35       30       36 1
      36       30       32 1
      37       31       34 1
      38       32       37 1
      39       32      629 1
      40       34       36 1
      41       34       38 1
      42       36       40 1
      43       38       39 1
      44       38       42 1
      45       42       43 1
      46       42       82 1
      47       43       44 1
      48       43       45 1
      49       43       46 1
      50       44       47 1
      51       44       48 1
      52       44       49 1
      53       47       50 1
      54       47       51 1
      55       50       52 1
      56       50       53 1
      57       50       54 1
      58       52       55 1
      59       52       56 1
      60       52       57 1
      61       55       58 1
      62       55       59 1
      63       58       60 1
      64       58       61 1
      65       58       62 1
      66       60       63 1
      67       60       64 1
      68       60       65 1
      69       63       66 1
      70       63       74 1
      71       67       68 1
      72       67       71 1
      73       67       76 1
      74       68       72 1
      75       68       74 1
      76       69       72 1
      77       70       74 1
      78       71       77 1
      79       71       73 1
      80       72       75 1
      81       73       78 1
      82       73      697 1
      83       75       77 1
      84       75       79 1
      85       77       81 1
      86       79       80 1
      87       79       83 1
      88       83       84 1
      89       83      124 1
      90       84       85 1
      91       84       86 1
      92       84       87 1
      93       85       88 1
      94       85       89 1
      95       85       90 1
      96       88       91 1
      97       88       92 1
      98       91       93 1
      99       91       94 1
     100       91       95 1
     101       93       96 1
     102       93       97 1
     103       93       98 1
     104       96       99 1
     105       96      100 1
     106       99      101 1
     107       99      102 1
     108       99      103 1
     109      101      104 1
     110      101      105 1
     111      101      106 1
     112      104      107 1
     113      104      115 1
     114      108      109 1
     115      108      112 1
     116      108      118 1
     117      109      113 1
     118      109      115 1
     119      110      113 1
     120      111      115 1
     121      112      119 1
     122      112      114 1
     123      113      116 1
     124      114      117 1
     125      114      120 1
     126      116      119 1
     127      116      121 1
     128      119      123 1
     129      121      122 1
     130      121      125 1
     131      125      126 1
     132      125      166 1
     133      126      127 1
     134      126      128 1
     135      126      129 1
     136      127      130 1
     137      127      131 1
     138      127      132 1
     139      130      133 1
     140      130      134 1
     141      133      135 1
     142      133      136 1
     143      133      137 1
     144      135      138 1
     145      135      139 1
     146      135      140 1
     147      138      141 1
     148      138      142 1
     149      141      143 1
     150      141      144 1
     151      141      145 1
     152      143      146 1
     153      143      147 1
     154      143      148 1
     155      146      149 1
     156      146      157 1
     157      150      151 1
     158      150      154 1
     159      150      160 1
     160      151      155 1
     161      151      157 1
     162      152      155 1
     163      153      157 1
     164      154      161 1
     165      154      156 1
     166      155      158 1
     167      156      159 1
     168      156      162 1
     169      158      161 1
     170      158      163 1
     171      161      165 1
     172      163      164 1
     173      163      167 1
     174      167      168 1
     175      167      208 1
     176      168      169 1
     177      168      170 1
     178      168      171 1
     179      169      172 1
     180      169      173 1
     181      169      174 1
     182      172      175 1
     183      172      176 1
     184      175      177 1
     185      175      178 1
     186      175      179 1
     187      177      180 1
     188      177      181 1
     189      177      182 1
     190      180      183 1
     191      180      184 1
     192      183      185 1
     193      183      186 1
     194      183      187 1
     195      185      188 1
     196      185      189 1
     197      185      190 1
     198      188      191 1
     199      188      199 1
     200      192      193 1
     201      192      196 1
     202      192      202 1
     203      193      197 1
     204      193      199 1
     205      194      197 1
     206      195      199 1
     207      196      203 1
     208      196      198 1
     209      197      200 1
     210      198      201 1
     211      198      204 1
     212      200      203 1
     213      200      205 1
     214      203      207 1
     215      205      206 1
     216      205      210 1
     217      211      212 1
     218      211      251 1
     219      211      417 1
     220      212      213 1
     221      212      214 1
     222      212      215 1
     223      213      216 1
     224      213      217 1
     225      213      218 1
     226      216      219 1
     227      216      220 1
     228      219      221 1
     229      219      222 1
     230      219      223 1
     231      221      224 1
     232      221      225 1
     233      221      226 1
     234      224      227 1
     235      224      228 1
     236      227      229 1
     237      227      230 1
     238      227      231 1
     239      229      232 1
     240      229      233 1
     241      229      234 1
     242      232      235 1
     243      232      243 1
     244      236      237 1
     245      236      240 1
     246      236      245 1
     247      237      241 1
     248      237      243 1
     249      238      241 1
     250      239      243 1
     251      240      246 1
     252      240      242 1
     253      241      244 1
     254      242      247 1
     255      242      692 1
     256      244      246 1
     257      244      248 1
     258      246      250 1
     259      248      249 1
     260      248      252 1
     261      252      253 1
     262      252      292 1
     263      253      254 1
     264      253      255 1
     265      253      256 1
     266      254      257 1
     267      254      258 1
     268      254      259 1
     269      257      260 1
     270      257      261 1
     271      260      262 1
     272      260      263 1
     273      260      264 1
     274      262      265 1
     275      262      266 1
     276      262      267 1
     277      265      268 1
     278      265      269 1
     279      268      270 1
     280      268      271 1
     281      268      272 1
     282      270      273 1
     283      270      274 1
     284      270      275 1
     285      273      276 1
     286      273      284 1
     287      277      278 1
     288      277      281 1
     289      277      286 1
     290      278      282 1
     291      278      284 1
     292      279      282 1
     293      280      284 1
     294      281      287 1
     295      281      283 1
     296      282      285 1
     297      283      288 1
     298      283      760 1
     299      285      287 1
     300      285      289 1
     301      287      291 1
     302      289      290 1
     303      289      293 1
     304      293      294 1
     305      293      333 1
     306      294      295 1
     307      294      296 1
     308      294      297 1
     309      295      298 1
     310      295      299 1
     311      295      300 1
     312      298      301 1
     313      298      302 1
     314      301      303 1
     315      301      304 1
     316      301      305 1
     317      303      306 1
     318      303      307 1
     319      303      308 1
     320      306      309 1
     321      306      310 1
     322      309      311 1
     323      309      312 1
     324      309      313 1
     325      311      314 1
     326      311      315 1
     327      311      316 1
     328      314      317 1
     329      314      325 1
     330      318      319 1
     331      318      322 1
     332      318      327 1
     333      319      323 1
     334      319      325 1
     335      320      323 1
     336      321      325 1
     337      322      328 1
     338      322      324 1
     339      323      326 1
     340      324      329 1
     341      324      765 1
     342      326      328 1
     343      326      330 1
     344      328      332 1
     345      330      331 1
     346      330      334 1
     347      334      335 1
     348      334      374 1
     349      335      336 1
     350      335      337 1
     351      335      338 1
     352      336      339 1
     353      336      340 1
     354      336      341 1
     355      339      342 1
     356      339      343 1
     357      342      344 1
     358      342      345 1
     359      342      346 1
     360      344      347 1
     361      344      348 1
     362      344      349 1
     363      347      350 1
     364      347      351 1
     365      350      352 1
     366      350      353 1
     367      350      354 1
     368      352      355 1
     369      352      356 1
     370      352      357 1
     371      355      358 1
     372      355      366 1
     373      359      360 1
     374      359      363 1
     375      359      368 1
     376      360      364 1
     377      360      366 1
     378      361      364 1
     379      362      366 1
     380      363      369 1
     381      363      365 1
     382      364      367 1
     383      365      370 1
     384      365      833 1
     385      367      369 1
     386      367      371 1
     387      369      373 1
     388      371      372 1
     389      371      375 1
     390      375      376 1
     391      375      416 1
     392      376      377 1
     393      376      378 1
     394      376      379 1
     395      377      380 1
     396      377      381 1
     397      377      382 1
     398      380      383 1
     399      380      384 1
     400      383      385 1
     401      383      386 1
     402      383      387 1
     403      385      388 1
     404      385      389 1
     405      385      390 1
     406      388      391 1
     407      388      392 1
     408      391      393 1
     409      391      394 1
     410      391      395 1
     411      393      396 1
     412      393      397 1
     413      393      398 1
     414      396      399 1
     415      396      407 1
     416      400      401 1
     417      400      404 1
     418      400      410 1
     419      401      405 1
     420      401      407 1
     421      402      405 1
     422      403      407 1
     423      404      411 1
     424      404      406 1
     425      405      408 1
     426      406      409 1
     427      406      412 1
     428      408      411 1
     429      408      413 1
     430      411      415 1
     431      413      414 1
     432      413      418 1
     433      419      420 1
     434      419      460 1
     435      419      627 1
     436      420      421 1
     437      420      422 1
     438      420      423 1
     439      421      424 1
     440      421      425 1
     441      421      426 1
     442      424      427 1
     443      424      428 1
     444      427      429 1
     445      427      430 1
     446      427      431 1
     447      429      432 1
     448      429      433 1
     449      429      434 1
     450      432      435 1
     451      432      436 1
     452      435      437 1
     453      435      438 1
     454      435      439 1
     455      437      440 1
     456      437      441 1
     457      437      442 1
     458      440      443 1
     459      440      451 1
     460      444      445 1
     461      444      448 1
     462      444      454 1
     463      445      449 1
     464      445      451 1
     465      446      449 1
     466      447      451 1
     467      448      455 1
     468      448      450 1
     469      449      452 1
     470      450      453 1
     471      450      456 1
     472      452      455 1
     473      452      457 1
     474      455      459 1
     475      457      458 1
     476      457      461 1
     477      461      462 1
     478      461      502 1
     479      462      463 1
     480      462      464 1
     481      462      465 1
     482      463      466 1
     483      463      467 1
     484      463      468 1
     485      466      469 1
     486      466      470 1
     487      469      471 1
     488      469      472 1
     489      469      473 1
     490      471      474 1
     491      471      475 1
     492      471      476 1
     493      474      477 1
     494      474      478 1
     495      477      479 1
     496      477      480 1
     497      477      481 1
     498      479      482 1
     499      479      483 1
     500      479      484 1
     501      482      485 1
     502      482      493 1
     503      486      487 1
     504      486      490 1
     505      486      496 1
     506      487      491 1
     507      487      493 1
     508      488      491 1
     509      489      493 1
     510      490      497 1
     511      490      492 1
     512      491      494 1
     513      492      495 1
     514      492      498 1
     515      494      497 1
     516      494      499 1
     517      497      501 1
     518      499      500 1
     519      499      503 1
     520      503      504 1
     521      503      543 1
     522      504      505 1
     523      504      506 1
     524      504      507 1
     525      505      508 1
     526      505      509 1
     527      505      510 1
     528      508      511 1
     529      508      512 1
     530      511      513 1
     531      511      514 1
     532      511      515 1
     533      513      516 1
     534      513      517 1
     535      513      518 1
     536      516      519 1
     537      516      520 1
     538      519      521 1
     539      519      522 1
     540      519      523 1
     541      521      524 1
     542      521      525 1
     543      521      526 1
     544      524      527 1
     545      524      535 1
     546      528      529 1
     547      528      532 1
     548      528      537 1
     549      529      533 1
     550      529      535 1
     551      530      533 1
     552      531      535 1
     553      532      538 1
     554      532      534 1
     555      533      536 1
     556      534      539 1
     557      534      828 1
     558      536      538 1
     559      536      540 1
     560      538      542 1
     561      540      541 1
     562      540      544 1
     563      544      545 1
     564      544      584 1
     565      545      546 1
     566      545      547 1
     567      545      548 1
     568      546      549 1
     569      546      550 1
     570      546      551 1
     571      549      552 1
     572      549      553 1
     573      552      554 1
     574      552      555 1
     575      552      556 1
     576      554      557 1
     577      554      558 1
     578      554      559 1
     579      557      560 1
     580      557      561 1
     581      560      562 1
     582      560      563 1
     583      560      564 1
     584      562      565 1
     585      562      566 1
     586      562      567 1
     587      565      568 1
     588      565      576 1
     589      569      570 1
     590      569      573 1
     591      569      578 1
     592      570      574 1
     593      570      576 1
     594      571      574 1
     595      572      576 1
     596      573      579 1
     597      573      575 1
     598      574      577 1
     599      575      580 1
     600      575      896 1
     601      577      579 1
     602      577      581 1
     603      579      583 1
     604      581      582 1
     605      581      585 1
     606      585      586 1
     607      585      626 1
     608      586      587 1
     609      586      588 1
     610      586      589 1
     611      587      590 1
     612      587      591 1
     613      587      592 1
     614      590      593 1
     615      590      594 1
     616      593      595 1
     617      593      596 1
     618      593      597 1
     619      595      598 1
     620      595      599 1
     621      595      600 1
     622      598      601 1
     623      598      602 1
     624      601      603 1
     625      601      604 1
     626      601      605 1
     627      603      606 1
     628      603      607 1
     629      603      608 1
     630      606      609 1
     631      606      617 1
     632      610      611 1
     633      610      614 1
     634      610      620 1
     635      611      615 1
     636      611      617 1
     637      612      615 1
     638      613      617 1
     639      614      621 1
     640      614      616 1
     641      615      618 1
     642      616      619 1
     643      616      622 1
     644      618      621 1
     645      618      623 1
     646      621      625 1
     647      623      624 1
     648      623      628 1
     649      629      630 1
     650      629      695 1
     651      630      631 1
     652      630      632 1
     653      630      633 1
     654      631      634 1
     655      631      635 1
     656      631      636 1
     657      634      637 1
     658      634      638 1
     659      637      639 1
     660      637      640 1
     661      637      641 1
     662      639      642 1
     663      639      643 1
     664      639      644 1
     665      642      645 1
     666      642      646 1
     667      645      647 1
     668      645      648 1
     669      645      649 1
     670      647      650 1
     671      647      651 1
     672      647      652 1
     673      650      653 1
     674      650      661 1
     675      654      655 1
     676      654      658 1
     677      654      664 1
     678      655      659 1
     679      655      661 1
     680      656      659 1
     681      657      661 1
     682      658      665 1
     683      658      660 1
     684      659      662 1
     685      660      663 1
     686      660      666 1
     687      662      665 1
     688      662      667 1
     689      665      669 1
     690      667      668 1
     691      667      670 1
     692      670      671 1
     693      670      672 1
     694      671      673 1
     695      671      674 1
     696      671      675 1
     697      673      676 1
     698      673      677 1
     699      673      678 1
     700      676      679 1
     701      676      680 1
     702      679      681 1
     703      679      682 1
     704      679      683 1
     705      681      684 1
     706      681      685 1
     707      681      686 1
     708      684      687 1
     709      684      688 1
     710      687      689 1
     711      687      690 1
     712      687      691 1
     713      689      692 1
     714      689      693 1
     715      689      694 1
     716      692      696 1
     717      697      698 1
     718      697      763 1
     719      698      699 1
     720      698      700 1
     721      698      701 1
     722      699      702 1
     723      699      703 1
     724      699      704 1
     725      702      705 1
     726      702      706 1
     727      705      707 1
     728      705      708 1
     729      705      709 1
     730      707      710 1
     731      707      711 1
     732      707      712 1
     733      710      713 1
     734      710      714 1
     735      713      715 1
     736      713      716 1
     737      713      717 1
     738      715      718 1
     739      715      719 1
     740      715      720 1
     741      718      721 1
     742      718      729 1
     743      722      723 1
     744      722      726 1
     745      722      732 1
     746      723      727 1
     747      723      729 1
     748      724      727 1
     749      725      729 1
     750      726      733 1
     751      726      728 1
     752      727      730 1
     753      728      731 1
     754      728      734 1
     755      730      733 1
     756      730      735 1
     757      733      737 1
     758      735      736 1
     759      735      738 1
     760      738      739 1
     761      738      740 1
     762      739      741 1
     763      739      742 1
     764      739      743 1
     765      741      744 1
     766      741      745 1
     767      741      746 1
     768      744      747 1
     769      744      748 1
     770      747      749 1
     771      747      750 1
     772      747      751 1
     773      749      752 1
     774      749      753 1
     775      749      754 1
     776      752      755 1
     777      752      756 1
     778      755      757 1
     779      755      758 1
     780      755      759 1
     781      757      760 1
     782      757      761 1
     783      757      762 1
     784      760      764 1
     785      765      766 1
     786      765      831 1
     787      766      767 1
     788      766      768 1
     789      766      769 1
     790      767      770 1
     791      767      771 1
     792      767      772 1
     793      770      773 1
     794      770      774 1
     795      773      775 1
     796      773      776 1
     797      773      777 1
     798      775      778 1
     799      775      779 1
     800      775      780 1
     801      778      781 1
     802      778      782 1
     803      781      783 1
     804      781      784 1
     805      781      785 1
     806      783      786 1
     807      783      787 1
     808      783      788 1
     809      786      789 1
     810      786      797 1
     811      790      791 1
     812      790      794 1
     813      790      800 1
     814      791      795 1
     815      791      797 1
     816      792      795 1
     817      793      797 1
     818      794      801 1
     819      794      796 1
     820      795      798 1
     821      796      799 1
     822      796      802 1
     823      798      801 1
     824      798      803 1
     825      801      805 1
     826      803      804 1
     827      803      806 1
     828      806      807 1
     829      806      808 1
     830      807      809 1
     831      807      810 1
     832      807      811 1
     833      809      812 1
     834      809      813 1
     835      809      814 1
     836      812      815 1
     837      812      816 1
     838      815      817 1
     839      815      818 1
     840      815      819 1
     841      817      820 1
     842      817      821 1
     843      817      822 1
     844      820      823 1
     845      820      824 1
     846      823      825 1
     847      823      826 1
     848      823      827 1
     849      825      828 1
     850      825      829 1
     851      825      830 1
     852      828      832 1
     853      833      834 1
     854      833      899 1
     855      834      835 1
     856      834      836 1
     857      834      837 1
     858      835      838 1
     859      835      839 1
     860      835      840 1
     861      838      841 1
     862      838      842 1
     863      841      843 1
     864      841      844 1
     865      841      845 1
     866      843      846 1
     867      843      847 1
     868      843      848 1
     869      846      849 1
     870      846      850 1
     871      849      851 1
     872      849      852 1
     873      849      853 1
     874      851      854 1
     875      851      855 1
     876      851      856 1
     877      854      857 1
     878      854      865 1
     879      858      859 1
     880      858      862 1
     881      858      868 1
     882      859      863 1
     883      859      865 1
     884      860      863 1
     885      861      865 1
     886      862      869 1
     887      862      864 1
     888      863      866 1
     889      864      867 1
     890      864      870 1
     891      866      869 1
     892      866      871 1
     893      869      873 1
     894      871      872 1
     895      871      874 1
     896      874      875 1
     897      874      876 1
     898      875      877 1
     899      875      878 1
     900      875      879 1
     901      877      880 1
     902      877      881 1
     903      877      882 1
     904      880      883 1
     905      880      884 1
     906      883      885 1
     907      883      886 1
     908      883      887 1
     909      885      888 1
     910      885      889 1
     911      885      890 1
     912      888      891 1
     913      888      892 1
     914      891      893 1
     915      891      894 1
     916      891      895 1
     917      893      896 1
     918      893      897 1
     919      893      898 1
     920      896      900 1
@<TRIPOS>SUBSTRUCTURE
       1 RES             1 RESIDUE    0 **** ROOT      0
