@<TRIPOS>MOLECULE
*****
 41 42 0 0 0
SMALL
GASTEIGER

@<TRIPOS>ATOM
      1 C          -8.6495    2.6011    0.0841 C.ar    1  UNL1       -0.0196
      2 C          -6.8005    4.1912   -0.0001 C.ar    1  UNL1       -0.0548
      3 C          -2.1351    4.4661    0.0000 C.3     1  UNL1       -0.0024
      4 C          -7.0518   -0.7909   -0.0000 C.ar    1  UNL1       -0.0196
      5 C          -8.5893    0.5692   -0.0000 C.ar    1  UNL1        0.1239
      6 C          -4.8638    2.8902   -0.0001 C.ar    1  UNL1       -0.0428
      7 H          -6.7453    5.2597   -0.0001 H       1  UNL1        0.0622
      8 H          -9.6205    3.7189    0.0000 H       1  UNL1        0.0654
      9 C          -4.9378    0.6874   -0.0001 C.ar    1  UNL1       -0.0548
     10 H          -7.1127   -1.8592   -0.0000 H       1  UNL1        0.0654
     11 O           7.6201   -1.1315    2.4058 O.3     1  UNL1       -0.4602
     12 H          -3.9972    0.1772   -0.0001 H       1  UNL1        0.0622
     13 C           0.4847    3.2776    0.0613 C.ar    1  UNL1       -0.0428
     14 H          -2.1309    5.0838   -0.8736 H       1  UNL1        0.0361
     15 H          -2.1317    4.9689    0.9445 H       1  UNL1        0.0361
     16 C           2.5152    4.8332    0.0000 C.ar    1  UNL1       -0.0548
     17 C           4.7080    0.4556    0.9067 C.ar    1  UNL1        0.1242
     18 C           0.3369    0.2563    0.0000 C.ar    1  UNL1       -0.0548
     19 C           4.6624    3.6114   -0.0419 C.ar    1  UNL1       -0.0195
     20 C           2.4226   -0.7553   -0.1186 C.ar    1  UNL1       -0.0195
     21 H           2.6239   -1.9894   -0.2620 H       1  UNL1        0.0654
     22 H           2.5438    5.9028    0.0000 H       1  UNL1        0.0622
     23 H           5.5047    3.2967   -0.4441 H       1  UNL1        0.0654
     24 H          -0.6291   -0.2040    0.0000 H       1  UNL1        0.0622
     25 O         -11.3136   -0.7962   -0.0001 O.3     1  UNL1       -0.4629
     26 C         -13.0024    0.3052   -0.0000 C.3     1  UNL1        0.2091
     27 H         -14.9446   -1.8860    0.3480 H       1  UNL1        0.0446
     28 H         -13.0923    3.0370   -1.4521 H       1  UNL1        0.2136
     29 C           9.1619    0.4146    2.9381 C.3     1  UNL1        0.2195
     30 H           8.2541    2.8143    2.2869 H       1  UNL1        0.2139
     31 H          12.2565   -0.7511    3.5071 H       1  UNL1        0.0632
     32 O           9.0890    2.5709    2.6693 O.3     1  UNL1       -0.3546
     33 H         -13.0445    0.7437    0.9751 H       1  UNL1        0.1062
     34 C         -14.8902   -1.1404   -0.4175 C.3     1  UNL1        0.0663
     35 H         -14.7727   -1.6145   -1.3695 H       1  UNL1        0.0446
     36 O         -13.1076    2.8990   -0.5123 O.3     1  UNL1       -0.3571
     37 C          11.3550   -1.0525    3.9982 C.2     1  UNL1       -0.0111
     38 H           8.9091    1.4525    2.8773 H       1  UNL1        0.1103
     39 H          11.1947   -2.0984    3.8391 H       1  UNL1        0.0632
     40 S         -16.9666   -1.2188   -2.1570 S.3     1  UNL1       -0.0868
     41 S          12.3543   -1.0215    6.2507 S.3     1  UNL1       -0.0669
@<TRIPOS>BOND
     1     1     2   ar
     2     3     6    1
     3     4     5   ar
     4     1     5   ar
     5     2     6   ar
     6     4    10    1
     7     1     8    1
     8     6     9   ar
     9     2     7    1
    10    11    17    1
    11     4     9   ar
    12     9    12    1
    13     3    13    1
    14     3    14    1
    15     3    15    1
    16    13    16   ar
    17    17    19   ar
    18    13    18   ar
    19    16    19   ar
    20    16    22    1
    21    20    21    1
    22    19    23    1
    23    18    24    1
    24    18    20   ar
    25    17    20   ar
    26     5    25    1
    27    25    26    1
    28    30    32    1
    29    28    36    1
    30    26    33    1
    31    11    29    1
    32    29    32    1
    33    27    34    1
    34    31    37    2
    35    26    34    1
    36    34    35    1
    37    26    36    1
    38    29    37    1
    39    29    38    1
    40    37    39    1
    41    34    40    1
    42    37    41    1
