@<TRIPOS>MOLECULE
*****
 73 75 0 0 0
SMALL
GASTEIGER

@<TRIPOS>ATOM
      1 C          -8.6495    2.6011    0.0841 C.ar    1  UNL1        0.0000
      2 C          -6.8005    4.1912   -0.0001 C.ar    1  UNL1        0.0000
      3 C          -2.1351    4.4661    0.0000 C.3     1  UNL1        0.0000
      4 C          -7.0518   -0.7909   -0.0000 C.ar    1  UNL1        0.0000
      5 C          -8.5893    0.5692   -0.0000 C.ar    1  UNL1        0.0000
      6 C          -4.8638    2.8902   -0.0001 C.ar    1  UNL1        0.0000
      7 H          -6.7453    5.2597   -0.0001 H       1  UNL1        0.0000
      8 H          -9.6205    3.7189    0.0000 H       1  UNL1        0.0000
      9 C          -4.9378    0.6874   -0.0001 C.ar    1  UNL1        0.0000
     10 H          -7.1127   -1.8592   -0.0000 H       1  UNL1        0.0000
     11 O           9.1500   -0.8045    1.7435 O.3     1  UNL1        0.0000
     12 H          -3.9972    0.1772   -0.0001 H       1  UNL1        0.0000
     13 C           0.4847    3.2776    0.0613 C.ar    1  UNL1        0.0000
     14 H          -2.1309    5.0838   -0.8736 H       1  UNL1        0.0000
     15 H          -2.1317    4.9689    0.9445 H       1  UNL1        0.0000
     16 C           2.5152    4.8332    0.0000 C.ar    1  UNL1        0.0000
     17 C           4.7080    0.4556    0.9067 C.ar    1  UNL1        0.0000
     18 C           0.3369    0.2563    0.0000 C.ar    1  UNL1        0.0000
     19 C           4.6624    3.6114   -0.0419 C.ar    1  UNL1        0.0000
     20 C           2.4226   -0.7553   -0.1186 C.ar    1  UNL1        0.0000
     21 H           2.6239   -1.9894   -0.2620 H       1  UNL1        0.0000
     22 H           2.5438    5.9028    0.0000 H       1  UNL1        0.0000
     23 H           5.5047    3.2967   -0.4441 H       1  UNL1        0.0000
     24 H          -0.6291   -0.2040    0.0000 H       1  UNL1        0.0000
     25 O         -10.5119   -0.2859    0.8120 O.3     1  UNL1        0.0000
     26 C         -12.3134    1.0190    1.6489 C.3     1  UNL1        0.0000
     27 C         -15.0769    0.0497    1.5282 C.3     1  UNL1        0.0000
     28 H         -12.3731    1.4605    3.0491 H       1  UNL1        0.0000
     29 H         -12.8017    1.3403    0.1986 H       1  UNL1        0.0000
     30 C          12.4131    4.7850    3.9424 C.3     1  UNL1        0.0000
     31 O         -17.3530    1.4684   -0.2642 O.3     1  UNL1        0.0000
     32 H          15.7824    6.1147    4.4834 H       1  UNL1        0.0000
     33 H          15.0457    6.1638    5.9521 H       1  UNL1        0.0000
     34 H          17.8399   -5.1551    8.4551 H       1  UNL1        0.0000
     35 C          10.1945    0.3591    1.5387 C.3     1  UNL1        0.0000
     36 C          12.9004   -1.0665    2.1566 C.3     1  UNL1        0.0000
     37 H           9.1795    1.2214    2.0351 H       1  UNL1        0.0000
     38 O          10.4503    0.9714   -0.0545 O.3     1  UNL1        0.0000
     39 H          10.3801    1.4766   -1.1200 H       1  UNL1        0.0000
     40 N          14.2768    0.1147    2.0259 N.pl3   1  UNL1        0.0000
     41 H          12.5553   -1.5154    3.2055 H       1  UNL1        0.0000
     42 H          13.4118   -1.9590    0.5780 H       1  UNL1        0.0000
     43 C          16.0844   -0.5045    6.2447 C.ar    1  UNL1        0.0000
     44 F          24.8571   -3.2270    5.6429 F       1  UNL1        0.0000
     45 C          16.0255    1.8614    5.9041 C.ar    1  UNL1        0.0000
     46 H          18.8736   -5.2876    6.6712 H       1  UNL1        0.0000
     47 C          18.3061   -2.0478    7.3692 C.ar    1  UNL1        0.0000
     48 C          18.1798    3.7597    6.6771 C.ar    1  UNL1        0.0000
     49 H          23.4890    7.7193    8.0955 H       1  UNL1        0.0000
     50 C          15.1109    5.5393    5.0858 C.3     1  UNL1        0.0000
     51 C          20.0355    2.2719    7.6850 C.ar    1  UNL1        0.0000
     52 H          11.8671    5.6730    3.7012 H       1  UNL1        0.0000
     53 H          19.5702   -4.9836    8.2830 H       1  UNL1        0.0000
     54 C          20.2997   -0.7081    8.1326 C.ar    1  UNL1        0.0000
     55 C          22.5618    3.6273    7.3989 C.3     1  UNL1        0.0000
     56 C         -19.7287    1.8560   -0.6743 C.3     1  UNL1        0.0000
     57 H          12.5518    4.2001    3.0573 H       1  UNL1        0.0000
     58 C          18.6239   -4.8047    7.8168 C.3     1  UNL1        0.0000
     59 N          24.7938   -1.8545    5.6429 N.pl3   1  UNL1        0.0000
     60 H          11.8664    4.2152    4.6645 H       1  UNL1        0.0000
     61 H         -15.5395    0.2270    0.3042 H       1  UNL1        0.0000
     62 H          18.1852    4.8236    6.5630 H       1  UNL1        0.0000
     63 C          23.8509    7.1035    8.8922 C.3     1  UNL1        0.0000
     64 H          23.3280    3.0309    6.6075 H       1  UNL1        0.0000
     65 H          22.9381    3.8470    7.6521 H       1  UNL1        0.0000
     66 H          23.5697    7.5331    9.8310 H       1  UNL1        0.0000
     67 H          24.9174    7.0372    8.8355 H       1  UNL1        0.0000
     68 H         -14.4989   -1.2231    0.3747 H       1  UNL1        0.0000
     69 B          27.0141   -1.9151    5.7042 B       1  UNL1        0.0000
     70 F          14.5325   -1.6125    2.0238 F       1  UNL1        0.0000
     71 H         -19.6052    1.6585    0.9352 H       1  UNL1        0.0000
     72 H         -19.1464    2.4376   -1.9258 H       1  UNL1        0.0000
     73 B         -22.0434    1.7747   -0.8731 B       1  UNL1        0.0000
@<TRIPOS>BOND
     1     1     2   ar
     2     3     6    1
     3     4     5   ar
     4     1     5   ar
     5     2     6   ar
     6     4    10    1
     7     1     8    1
     8     6     9   ar
     9     2     7    1
    10    11    17    1
    11     4     9   ar
    12     9    12    1
    13     3    13    1
    14     3    14    1
    15     3    15    1
    16    13    16   ar
    17    17    19   ar
    18    13    18   ar
    19    16    19   ar
    20    16    22    1
    21    20    21    1
    22    19    23    1
    23    18    24    1
    24    18    20   ar
    25    17    20   ar
    26     5    25    1
    27    25    26    1
    28    26    27    1
    29    26    28    1
    30    26    29    1
    31    34    58    1
    32    32    50    1
    33    33    50    1
    34    27    31    1
    35    30    50    1
    36    63    67    1
    37    11    35    1
    38    35    36    1
    39    35    37    1
    40    35    38    1
    41    38    39    1
    42    36    40    1
    43    36    41    1
    44    36    42    1
    45    40    43    1
    46    59    44    1
    47    43    45   ar
    48    47    54   ar
    49    43    47   ar
    50    45    48   ar
    51    49    63    1
    52    45    50    1
    53    48    51   ar
    54    30    52    1
    55    53    58    1
    56    51    54   ar
    57    51    55    1
    58    31    56    1
    59    30    57    1
    60    47    58    1
    61    46    58    1
    62    54    59    1
    63    30    60    1
    64    27    61    1
    65    48    62    1
    66    55    63    1
    67    55    64    1
    68    55    65    1
    69    63    66    1
    70    27    68    1
    71    59    69    1
    72    40    70    1
    73    56    71    1
    74    56    72    1
    75    56    73    1
