@<TRIPOS>MOLECULE
*****
 31 31 0 0 0
SMALL
GASTEIGER

@<TRIPOS>ATOM
      1 H          18.1852    4.8236    6.5630 H       1  UNL1        0.0624
      2 H          11.8664    4.2152    4.6645 H       1  UNL1        0.0233
      3 H          19.5702   -4.9836    8.2830 H       1  UNL1        0.0279
      4 C          22.5618    3.6273    7.3989 C.3     1  UNL1       -0.0287
      5 C          23.8509    7.1035    8.8922 C.3     1  UNL1       -0.0612
      6 C          18.6239   -4.8047    7.8168 C.3     1  UNL1       -0.0361
      7 N          24.7938   -1.8545    5.6429 N.pl3   1  UNL1       -0.2780
      8 C          12.4131    4.7850    3.9424 C.3     1  UNL1       -0.0612
      9 H          12.5518    4.2001    3.0573 H       1  UNL1        0.0233
     10 C          20.2997   -0.7081    8.1326 C.ar    1  UNL1        0.0453
     11 S          26.1944   -1.8119    5.6430 S.3     1  UNL1        0.0295
     12 H          15.7824    6.1147    4.4834 H       1  UNL1        0.0311
     13 C          15.1109    5.5393    5.0858 C.3     1  UNL1       -0.0287
     14 H          11.8671    5.6730    3.7012 H       1  UNL1        0.0233
     15 C          20.0355    2.2719    7.6850 C.ar    1  UNL1       -0.0254
     16 H          23.4890    7.7193    8.0955 H       1  UNL1        0.0233
     17 C          16.0255    1.8614    5.9041 C.ar    1  UNL1       -0.0254
     18 N          14.2768    0.1147    2.0259 N.pl3   1  UNL1       -0.2780
     19 C          18.3061   -2.0478    7.3692 C.ar    1  UNL1       -0.0067
     20 C          16.0844   -0.5045    6.2447 C.ar    1  UNL1        0.0453
     21 H          15.0457    6.1638    5.9521 H       1  UNL1        0.0311
     22 C          18.1798    3.7597    6.6771 C.ar    1  UNL1       -0.0518
     23 H          18.8736   -5.2876    6.6712 H       1  UNL1        0.0279
     24 H          17.8399   -5.1551    8.4551 H       1  UNL1        0.0279
     25 H          22.9381    3.8470    7.6521 H       1  UNL1        0.0311
     26 H          23.5697    7.5331    9.8310 H       1  UNL1        0.0233
     27 H          24.6599   -2.8683    5.5200 H       1  UNL1        0.1608
     28 H          24.9174    7.0372    8.8355 H       1  UNL1        0.0233
     29 H          23.3280    3.0309    6.6075 H       1  UNL1        0.0311
     30 S          12.8639   -0.0073    2.0300 S.3     1  UNL1        0.0295
     31 H          14.5283    1.0558    1.6912 H       1  UNL1        0.1608
@<TRIPOS>BOND
     1     7    10    1
     2    12    13    1
     3     4    25    1
     4     1    22    1
     5     6    19    1
     6     3     6    1
     7     2     8    1
     8     8     9    1
     9     6    23    1
    10    13    21    1
    11    10    15   ar
    12     4    15    1
    13    13    17    1
    14    15    22   ar
    15     8    14    1
    16    17    22   ar
    17     7    11    1
    18     5    16    1
    19    10    19   ar
    20    19    20   ar
    21     8    13    1
    22    17    20   ar
    23     5    28    1
    24     6    24    1
    25    18    20    1
    26     4     5    1
    27     4    29    1
    28     7    27    1
    29     5    26    1
    30    18    30    1
    31    18    31    1
