@<TRIPOS>MOLECULE
*****
 9 8 0 0 0
SMALL
GASTEIGER

@<TRIPOS>ATOM
      1 C          -5.4256    1.0718   -0.0000 C.3     1  UNL1       -0.0418
      2 C          -3.6663    1.0866   -0.0000 C.3     1  UNL1        0.0414
      3 O          -3.6515    2.5058   -0.0000 O.3     1  UNL1       -0.3953
      4 H          -3.6368    3.6294   -0.0000 H       1  UNL1        0.2094
      5 H          -5.4403   -0.1404   -0.0000 H       1  UNL1        0.0252
      6 H          -3.6973    0.1610   -0.9004 H       1  UNL1        0.0554
      7 H          -2.4984    1.1162   -0.0000 H       1  UNL1        0.0554
      8 H          -6.7265    1.1014   -0.0000 H       1  UNL1        0.0252
      9 H          -5.4256    2.2988   -0.0000 H       1  UNL1        0.0252
@<TRIPOS>BOND
     1     1     2    1
     2     2     3    1
     3     3     4    1
     4     1     5    1
     5     2     6    1
     6     2     7    1
     7     1     8    1
     8     1     9    1
