@<TRIPOS>MOLECULE
*****
 28 27 0 0 0
SMALL
GASTEIGER

@<TRIPOS>ATOM
      1 N          -8.7341    1.8656    0.0000 N.3     1  UNL1       -0.1574
      2 C          -6.9205    1.3654    0.0001 C.3     1  UNL1        0.0388
      3 F         -10.1846    1.9062   -0.0447 F       1  UNL1       -0.1357
      4 H          -8.8588    2.7048   -0.5841 H       1  UNL1        0.1592
      5 C          -5.2321    2.1366    0.0001 C.3     1  UNL1        0.0109
      6 H          -6.8714    0.7496    0.8737 H       1  UNL1        0.0462
      7 H          -6.9095    1.2277   -1.0610 H       1  UNL1        0.0462
      8 N          -3.5645    1.1569    0.0001 N.3     1  UNL1       -0.3135
      9 H          -5.2004    2.7535   -0.8736 H       1  UNL1        0.0437
     10 H          -5.2107    2.5535    0.9853 H       1  UNL1        0.0437
     11 C          -1.7718    2.4076    0.0001 C.3     1  UNL1        0.0085
     12 H          -3.5413    0.5627    0.8411 H       1  UNL1        0.1220
     13 C          -0.2710    1.0110    0.0001 C.3     1  UNL1        0.0085
     14 H          -1.7285    3.0238   -0.8735 H       1  UNL1        0.0436
     15 H          -1.7239    3.0901    0.8227 H       1  UNL1        0.0436
     16 N           1.5842    2.5326    0.0002 N.3     1  UNL1       -0.3135
     17 H          -0.2903    0.3935    0.8738 H       1  UNL1        0.0436
     18 H          -0.2934    0.2935   -0.7934 H       1  UNL1        0.0436
     19 C           3.1892    1.0110    0.0002 C.3     1  UNL1        0.0109
     20 H           1.6056    3.1269   -0.8408 H       1  UNL1        0.1220
     21 C           4.5858    2.4909    0.0003 C.3     1  UNL1        0.0388
     22 H           3.2064    0.3934    0.8739 H       1  UNL1        0.0437
     23 H           3.2106    0.2447   -0.7462 H       1  UNL1        0.0437
     24 N           6.2117    0.9693    0.0003 N.3     1  UNL1       -0.1574
     25 H           4.5667    3.1084   -0.8734 H       1  UNL1        0.0462
     26 H           4.5621    3.2551    0.7488 H       1  UNL1        0.0462
     27 H           6.0733    0.3190   -0.7863 H       1  UNL1        0.1592
     28 F           7.6577    0.9454   -0.0505 F       1  UNL1       -0.1357
@<TRIPOS>BOND
     1     1     2    1
     2     1     3    1
     3     1     4    1
     4     2     5    1
     5     2     6    1
     6     2     7    1
     7     5     8    1
     8     5     9    1
     9     5    10    1
    10     8    11    1
    11     8    12    1
    12    11    13    1
    13    11    14    1
    14    11    15    1
    15    13    16    1
    16    13    17    1
    17    13    18    1
    18    16    19    1
    19    16    20    1
    20    19    21    1
    21    19    22    1
    22    19    23    1
    23    21    24    1
    24    21    25    1
    25    21    26    1
    26    24    27    1
    27    24    28    1
