@<TRIPOS>MOLECULE
*****
 18 18 0 0 0
SMALL
GASTEIGER

@<TRIPOS>ATOM
      1 C          -4.6485    1.7197    0.0000 C.ar    1  UNL1       -0.0369
      2 C          -4.6484    3.6791    0.0000 C.ar    1  UNL1        0.0526
      3 H          -3.0809    5.6865    0.0000 H       1  UNL1        0.0633
      4 O          -5.9200    5.8262    0.0001 O.2     1  UNL1       -0.2541
      5 C          -3.1476    0.2397    0.0000 C.ar    1  UNL1        0.0350
      6 C          -3.0434    4.6172    0.0000 C.ar    1  UNL1       -0.0354
      7 C          -3.1267   -1.3654    0.0001 C.2     1  UNL1        0.2524
      8 C          -5.9617    4.7214    0.0001 C.2     1  UNL1        0.3323
      9 C          -1.3549    3.7834    0.0001 C.ar    1  UNL1        0.0526
     10 CL         -1.9386   -1.3862    0.0001 Cl      1  UNL1       -0.0383
     11 H          -5.6356    1.3068   -0.0000 H       1  UNL1        0.0633
     12 C          -1.2715    1.5738    0.0001 C.ar    1  UNL1       -0.0369
     13 O          -3.1684   -2.5327    0.0001 O.2     1  UNL1       -0.2740
     14 C          -0.1251    4.6589    0.0001 C.2     1  UNL1        0.3323
     15 O          -0.4169    5.7219    0.0001 O.2     1  UNL1       -0.2541
     16 H          -0.3116    1.1012    0.0001 H       1  UNL1        0.0633
     17 F           1.5616    4.6589    0.0001 F       1  UNL1       -0.1586
     18 F          -7.5238    4.7093    0.0001 F       1  UNL1       -0.1586
@<TRIPOS>BOND
     1     1     2   ar
     2     5    12   ar
     3     4     8    2
     4     1     5   ar
     5     2     6   ar
     6     5     7    1
     7     2     8    1
     8     6     9   ar
     9    10     7    1
    10     1    11    1
    11     9    12   ar
    12    13     7    2
    13     9    14    1
    14    14    15    2
    15    12    16    1
    16     3     6    1
    17    14    17    1
    18     8    18    1
